11363176
  -OEChem-06112215543D

 56 58  0     1  0  0  0  0  0999 V2000
   -4.3535   -1.4310    2.5829 Cl  0  0  0  0  0  0  0  0  0  0  0  0
    0.7712    0.5744    0.0784 S   0  0  0  0  0  0  0  0  0  0  0  0
   -5.5090   -0.8881   -0.1388 O   0  0  0  0  0  0  0  0  0  0  0  0
    2.7758   -2.6486   -0.2582 O   0  0  0  0  0  0  0  0  0  0  0  0
   -8.2192   -0.1244   -0.3427 O   0  0  0  0  0  0  0  0  0  0  0  0
   -8.8827    2.5373    0.0608 O   0  0  0  0  0  0  0  0  0  0  0  0
    3.1967   -0.3424    0.0886 N   0  0  0  0  0  0  0  0  0  0  0  0
    2.9534    2.0281    0.4214 N   0  0  0  0  0  0  0  0  0  0  0  0
    4.6325   -0.4087    0.1232 C   0  0  0  0  0  0  0  0  0  0  0  0
    2.4907    0.8458    0.2016 C   0  0  0  0  0  0  0  0  0  0  0  0
    2.4128   -1.4940   -0.0711 C   0  0  0  0  0  0  0  0  0  0  0  0
    0.9739   -1.1210   -0.0557 C   0  0  0  0  0  0  0  0  0  0  0  0
    5.3810   -0.3011   -1.0482 C   0  0  0  0  0  0  0  0  0  0  0  0
    5.2738   -0.5833    1.3490 C   0  0  0  0  0  0  0  0  0  0  0  0
   -0.0155   -2.0113   -0.1471 C   0  0  0  0  0  0  0  0  0  0  0  0
   -1.4407   -1.7205   -0.1364 C   0  0  0  0  0  0  0  0  0  0  0  0
    1.9392    3.0719    0.4845 C   0  0  0  0  0  0  0  0  0  0  0  0
    6.7732   -0.3679   -0.9935 C   0  0  0  0  0  0  0  0  0  0  0  0
   -7.2024    0.8271   -0.0203 C   0  0  1  0  0  0  0  0  0  0  0  0
    4.7198   -0.1135   -2.3751 C   0  0  0  0  0  0  0  0  0  0  0  0
   -5.8930    0.3800   -0.6600 C   0  0  0  0  0  0  0  0  0  0  0  0
    2.5999    4.4199    0.7449 C   0  0  0  0  0  0  0  0  0  0  0  0
    6.6659   -0.6500    1.4034 C   0  0  0  0  0  0  0  0  0  0  0  0
   -4.1680   -1.1646   -0.1178 C   0  0  0  0  0  0  0  0  0  0  0  0
   -2.1426   -1.7126    1.0690 C   0  0  0  0  0  0  0  0  0  0  0  0
   -2.1055   -1.4498   -1.3325 C   0  0  0  0  0  0  0  0  0  0  0  0
    7.4156   -0.5424    0.2323 C   0  0  0  0  0  0  0  0  0  0  0  0
   -3.5094   -1.4341    1.0783 C   0  0  0  0  0  0  0  0  0  0  0  0
   -3.4721   -1.1714   -1.3232 C   0  0  0  0  0  0  0  0  0  0  0  0
   -7.6452    2.1853   -0.5488 C   0  0  0  0  0  0  0  0  0  0  0  0
    3.5834    4.8110   -0.3489 C   0  0  0  0  0  0  0  0  0  0  0  0
    4.6996   -0.6682    2.2680 H   0  0  0  0  0  0  0  0  0  0  0  0
    0.2162   -3.0711   -0.2319 H   0  0  0  0  0  0  0  0  0  0  0  0
    1.3849    3.1617   -0.4588 H   0  0  0  0  0  0  0  0  0  0  0  0
    1.2426    2.9113    1.3175 H   0  0  0  0  0  0  0  0  0  0  0  0
    7.3731   -0.2859   -1.8961 H   0  0  0  0  0  0  0  0  0  0  0  0
   -7.1237    0.8357    1.0719 H   0  0  0  0  0  0  0  0  0  0  0  0
    4.0578   -0.9565   -2.5980 H   0  0  0  0  0  0  0  0  0  0  0  0
    4.1410    0.8157   -2.3883 H   0  0  0  0  0  0  0  0  0  0  0  0
    5.4507   -0.0516   -3.1888 H   0  0  0  0  0  0  0  0  0  0  0  0
   -6.0188    0.2753   -1.7444 H   0  0  0  0  0  0  0  0  0  0  0  0
   -5.1165    1.1307   -0.4638 H   0  0  0  0  0  0  0  0  0  0  0  0
    1.8257    5.1919    0.8240 H   0  0  0  0  0  0  0  0  0  0  0  0
    3.1300    4.3942    1.7046 H   0  0  0  0  0  0  0  0  0  0  0  0
    7.1661   -0.7857    2.3578 H   0  0  0  0  0  0  0  0  0  0  0  0
   -1.6239   -1.9243    2.0022 H   0  0  0  0  0  0  0  0  0  0  0  0
   -1.5729   -1.4550   -2.2806 H   0  0  0  0  0  0  0  0  0  0  0  0
    8.4996   -0.5944    0.2749 H   0  0  0  0  0  0  0  0  0  0  0  0
   -3.9773   -0.9727   -2.2642 H   0  0  0  0  0  0  0  0  0  0  0  0
   -6.9121    2.9619   -0.3116 H   0  0  0  0  0  0  0  0  0  0  0  0
   -7.8032    2.1681   -1.6322 H   0  0  0  0  0  0  0  0  0  0  0  0
    3.9934    5.8058   -0.1471 H   0  0  0  0  0  0  0  0  0  0  0  0
    4.4221    4.1102   -0.4054 H   0  0  0  0  0  0  0  0  0  0  0  0
    3.0916    4.8398   -1.3265 H   0  0  0  0  0  0  0  0  0  0  0  0
   -8.3056   -0.1556   -1.3109 H   0  0  0  0  0  0  0  0  0  0  0  0
   -9.5225    1.8367   -0.1528 H   0  0  0  0  0  0  0  0  0  0  0  0
  1 28  1  0  0  0  0
  2 10  1  0  0  0  0
  2 12  1  0  0  0  0
  3 21  1  0  0  0  0
  3 24  1  0  0  0  0
  4 11  2  0  0  0  0
  5 19  1  0  0  0  0
  5 55  1  0  0  0  0
  6 30  1  0  0  0  0
  6 56  1  0  0  0  0
  7  9  1  0  0  0  0
  7 10  1  0  0  0  0
  7 11  1  0  0  0  0
  8 10  2  0  0  0  0
  8 17  1  0  0  0  0
  9 13  1  0  0  0  0
  9 14  2  0  0  0  0
 11 12  1  0  0  0  0
 12 15  2  0  0  0  0
 13 18  2  0  0  0  0
 13 20  1  0  0  0  0
 14 23  1  0  0  0  0
 14 32  1  0  0  0  0
 15 16  1  0  0  0  0
 15 33  1  0  0  0  0
 16 25  2  0  0  0  0
 16 26  1  0  0  0  0
 17 22  1  0  0  0  0
 17 34  1  0  0  0  0
 17 35  1  0  0  0  0
 18 27  1  0  0  0  0
 18 36  1  0  0  0  0
 19 21  1  0  0  0  0
 19 30  1  0  0  0  0
 19 37  1  0  0  0  0
 20 38  1  0  0  0  0
 20 39  1  0  0  0  0
 20 40  1  0  0  0  0
 21 41  1  0  0  0  0
 21 42  1  0  0  0  0
 22 31  1  0  0  0  0
 22 43  1  0  0  0  0
 22 44  1  0  0  0  0
 23 27  2  0  0  0  0
 23 45  1  0  0  0  0
 24 28  2  0  0  0  0
 24 29  1  0  0  0  0
 25 28  1  0  0  0  0
 25 46  1  0  0  0  0
 26 29  2  0  0  0  0
 26 47  1  0  0  0  0
 27 48  1  0  0  0  0
 29 49  1  0  0  0  0
 30 50  1  0  0  0  0
 30 51  1  0  0  0  0
 31 52  1  0  0  0  0
 31 53  1  0  0  0  0
 31 54  1  0  0  0  0
M  END
> <PUBCHEM_COMPOUND_CID>
11363176

> <PUBCHEM_CONFORMER_RMSD>
1

> <PUBCHEM_CONFORMER_DIVERSEORDER>
1
40
72
49
50
59
68
6
58
67
48
17
71
78
77
22
53
65
35
34
25
41
5
54
26
61
60
70
30
32
79
18
51
7
57
73
14
47
82
52
33
15
69
66
10
81
44
31
19
62
37
76
75
36
42
21
80
45
74
8
63
64
29
38
12
56
43
27
39
13
2
28
20
55
46
16
4
23
11
9
24
3

> <PUBCHEM_MMFF94_PARTIAL_CHARGES>
39
1 -0.18
10 0.65
11 0.62
12 0.12
13 -0.14
14 -0.15
15 -0.18
16 0.03
17 0.25
18 -0.15
19 0.28
2 -0.24
20 0.14
21 0.28
23 -0.15
24 0.08
25 -0.15
26 -0.15
27 -0.15
28 0.18
29 -0.15
3 -0.36
30 0.28
32 0.15
33 0.15
36 0.15
4 -0.57
45 0.15
46 0.15
47 0.15
48 0.15
49 0.15
5 -0.68
55 0.4
56 0.4
6 -0.68
7 -0.24
8 -0.7
9 0.12

> <PUBCHEM_EFFECTIVE_ROTOR_COUNT>
8.4

> <PUBCHEM_PHARMACOPHORE_FEATURES>
10
1 3 acceptor
1 31 hydrophobe
1 4 acceptor
1 5 acceptor
1 5 donor
1 6 acceptor
1 6 donor
5 2 7 10 11 12 rings
6 16 24 25 26 28 29 rings
6 9 13 14 18 23 27 rings

> <PUBCHEM_HEAVY_ATOM_COUNT>
31

> <PUBCHEM_ATOM_DEF_STEREO_COUNT>
1

> <PUBCHEM_ATOM_UDEF_STEREO_COUNT>
0

> <PUBCHEM_BOND_DEF_STEREO_COUNT>
1

> <PUBCHEM_BOND_UDEF_STEREO_COUNT>
0

> <PUBCHEM_ISOTOPIC_ATOM_COUNT>
0

> <PUBCHEM_COMPONENT_COUNT>
1

> <PUBCHEM_CACTVS_TAUTO_COUNT>
1

> <PUBCHEM_CONFORMER_ID>
00AD636800000001

> <PUBCHEM_MMFF94_ENERGY>
110.276

> <PUBCHEM_FEATURE_SELFOVERLAP>
50.759

> <PUBCHEM_SHAPE_FINGERPRINT>
10 15 16660368061044852375
10050765 1 18122904501769853671
10763959 59 18411703200788929141
11456790 92 18113614560459266201
13590594 115 18412269441336685224
13782708 43 17970638599648619506
14117953 113 18202283584743932437
14294032 229 18118409449396889372
14556957 393 16773806892122985233
15064981 113 16773810194288437461
15142383 8 18335139787237513810
15183329 4 18341897372568944995
15198563 99 18268730337757271572
15297060 5 15791734104728903305
15439362 3 18122905602057214344
16087824 20 18340485569532411548
18365409 1 16414904374665659806
21033648 29 18041557065184596987
21223535 225 18270106934467045653
21298829 104 18202003184073314241
21792961 116 18188205408768061254
22122407 14 18411145744773990953
23559900 14 18199742703935525506
23576562 1 18195810893288564678
24771293 8 17986371495367941832
2838139 119 18411693293370275557
3103668 31 18264769849028144484
335352 9 18412260657532102046
3633792 109 16988564559410697207
57724786 102 18190734426254116028
58902169 19 17989196062823463639
6371380 46 18260828215484099523

> <PUBCHEM_SHAPE_MULTIPOLES>
610.25
22.43
3.85
1.5
29.5
6.92
-0.18
6.67
1.33
-1.69
-0.54
-0.32
-0.58
1.04

> <PUBCHEM_SHAPE_SELFOVERLAP>
1271.562

> <PUBCHEM_SHAPE_VOLUME>
349.3

> <PUBCHEM_COORDINATE_TYPE>
2
5
10

$$$$
