16122596
  -OEChem-06112215543D

 53 54  0     1  0  0  0  0  0999 V2000
   -4.0601    2.9385   -0.4953 F   0  0  0  0  0  0  0  0  0  0  0  0
   -2.7512   -1.9015   -0.8735 O   0  0  0  0  0  0  0  0  0  0  0  0
    5.4156    1.6059   -1.1914 O   0  0  0  0  0  0  0  0  0  0  0  0
    4.1957    0.4005    0.3788 N   0  0  0  0  0  0  0  0  0  0  0  0
   -3.5633    0.0633    0.0313 N   0  0  0  0  0  0  0  0  0  0  0  0
   -1.9368   -1.5597    2.1223 N   0  0  0  0  0  0  0  0  0  0  0  0
    0.2730   -0.8291   -0.9335 C   0  0  0  0  0  0  0  0  0  0  0  0
   -0.2178   -1.5697    0.3136 C   0  0  1  0  0  0  0  0  0  0  0  0
    1.5155   -1.4984   -1.5379 C   0  0  0  0  0  0  0  0  0  0  0  0
    0.5415    0.6542   -0.6431 C   0  0  0  0  0  0  0  0  0  0  0  0
    3.0275    0.2162   -0.4495 C   0  0  0  0  0  0  0  0  0  0  0  0
    2.7801   -1.2716   -0.7113 C   0  0  0  0  0  0  0  0  0  0  0  0
    1.8047    0.8833    0.1851 C   0  0  0  0  0  0  0  0  0  0  0  0
   -1.4923   -0.9146    0.8911 C   0  0  1  0  0  0  0  0  0  0  0  0
   -0.3749   -3.0653    0.0081 C   0  0  0  0  0  0  0  0  0  0  0  0
   -2.6548   -0.9750   -0.0671 C   0  0  0  0  0  0  0  0  0  0  0  0
   -3.5027    1.1907    0.9597 C   0  0  0  0  0  0  0  0  0  0  0  0
   -4.7356    0.1526   -0.8269 C   0  0  0  0  0  0  0  0  0  0  0  0
   -4.5870    2.1363    0.4701 C   0  0  2  0  0  0  0  0  0  0  0  0
   -5.6097    1.2107   -0.1691 C   0  0  0  0  0  0  0  0  0  0  0  0
    4.1258   -0.1888    1.7193 C   0  0  0  0  0  0  0  0  0  0  0  0
    5.3250    1.0984   -0.0702 C   0  0  0  0  0  0  0  0  0  0  0  0
    6.4818    1.2229    0.8894 C   0  0  0  0  0  0  0  0  0  0  0  0
   -0.5083   -0.8721   -1.7034 H   0  0  0  0  0  0  0  0  0  0  0  0
    0.5468   -1.5019    1.0995 H   0  0  0  0  0  0  0  0  0  0  0  0
    1.3776   -2.5654   -1.7341 H   0  0  0  0  0  0  0  0  0  0  0  0
    1.6840   -1.0542   -2.5293 H   0  0  0  0  0  0  0  0  0  0  0  0
    0.6906    1.1550   -1.6107 H   0  0  0  0  0  0  0  0  0  0  0  0
   -0.3079    1.1784   -0.2014 H   0  0  0  0  0  0  0  0  0  0  0  0
    3.2045    0.6994   -1.4188 H   0  0  0  0  0  0  0  0  0  0  0  0
    2.7006   -1.8510    0.2140 H   0  0  0  0  0  0  0  0  0  0  0  0
    3.6388   -1.6918   -1.2506 H   0  0  0  0  0  0  0  0  0  0  0  0
    1.6203    0.5375    1.2070 H   0  0  0  0  0  0  0  0  0  0  0  0
    1.9851    1.9631    0.2673 H   0  0  0  0  0  0  0  0  0  0  0  0
   -1.2491    0.1054    1.1768 H   0  0  0  0  0  0  0  0  0  0  0  0
   -0.7924   -3.2615   -0.9843 H   0  0  0  0  0  0  0  0  0  0  0  0
   -1.0056   -3.5724    0.7452 H   0  0  0  0  0  0  0  0  0  0  0  0
    0.5976   -3.5692    0.0559 H   0  0  0  0  0  0  0  0  0  0  0  0
   -3.7241    0.8179    1.9636 H   0  0  0  0  0  0  0  0  0  0  0  0
   -2.5232    1.6721    0.9353 H   0  0  0  0  0  0  0  0  0  0  0  0
   -5.2299   -0.8192   -0.9163 H   0  0  0  0  0  0  0  0  0  0  0  0
   -4.3972    0.4699   -1.8195 H   0  0  0  0  0  0  0  0  0  0  0  0
   -4.9967    2.7749    1.2561 H   0  0  0  0  0  0  0  0  0  0  0  0
   -6.2349    0.7509    0.6050 H   0  0  0  0  0  0  0  0  0  0  0  0
   -6.2516    1.7157   -0.8957 H   0  0  0  0  0  0  0  0  0  0  0  0
   -2.6959   -1.0303    2.5472 H   0  0  0  0  0  0  0  0  0  0  0  0
   -1.1774   -1.5634    2.8021 H   0  0  0  0  0  0  0  0  0  0  0  0
    3.1841   -0.6982    1.9285 H   0  0  0  0  0  0  0  0  0  0  0  0
    4.9418   -0.9097    1.8274 H   0  0  0  0  0  0  0  0  0  0  0  0
    4.2620    0.6061    2.4587 H   0  0  0  0  0  0  0  0  0  0  0  0
    6.1725    1.7629    1.7877 H   0  0  0  0  0  0  0  0  0  0  0  0
    7.2918    1.7843    0.4138 H   0  0  0  0  0  0  0  0  0  0  0  0
    6.8618    0.2334    1.1556 H   0  0  0  0  0  0  0  0  0  0  0  0
  1 19  1  0  0  0  0
  2 16  2  0  0  0  0
  3 22  2  0  0  0  0
  4 11  1  0  0  0  0
  4 21  1  0  0  0  0
  4 22  1  0  0  0  0
  5 16  1  0  0  0  0
  5 17  1  0  0  0  0
  5 18  1  0  0  0  0
  6 14  1  0  0  0  0
  6 46  1  0  0  0  0
  6 47  1  0  0  0  0
  7  8  1  0  0  0  0
  7  9  1  0  0  0  0
  7 10  1  0  0  0  0
  7 24  1  0  0  0  0
  8 14  1  0  0  0  0
  8 15  1  0  0  0  0
  8 25  1  0  0  0  0
  9 12  1  0  0  0  0
  9 26  1  0  0  0  0
  9 27  1  0  0  0  0
 10 13  1  0  0  0  0
 10 28  1  0  0  0  0
 10 29  1  0  0  0  0
 11 12  1  0  0  0  0
 11 13  1  0  0  0  0
 11 30  1  0  0  0  0
 12 31  1  0  0  0  0
 12 32  1  0  0  0  0
 13 33  1  0  0  0  0
 13 34  1  0  0  0  0
 14 16  1  0  0  0  0
 14 35  1  0  0  0  0
 15 36  1  0  0  0  0
 15 37  1  0  0  0  0
 15 38  1  0  0  0  0
 17 19  1  0  0  0  0
 17 39  1  0  0  0  0
 17 40  1  0  0  0  0
 18 20  1  0  0  0  0
 18 41  1  0  0  0  0
 18 42  1  0  0  0  0
 19 20  1  0  0  0  0
 19 43  1  0  0  0  0
 20 44  1  0  0  0  0
 20 45  1  0  0  0  0
 21 48  1  0  0  0  0
 21 49  1  0  0  0  0
 21 50  1  0  0  0  0
 22 23  1  0  0  0  0
 23 51  1  0  0  0  0
 23 52  1  0  0  0  0
 23 53  1  0  0  0  0
M  END
> <PUBCHEM_COMPOUND_CID>
16122596

> <PUBCHEM_CONFORMER_RMSD>
0.8

> <PUBCHEM_CONFORMER_DIVERSEORDER>
1
7
85
87
77
83
67
60
88
43
62
96
80
90
47
97
25
53
34
44
39
20
45
41
86
91
27
73
69
99
81
48
22
26
28
23
38
72
82
35
50
63
19
21
40
58
31
5
18
93
71
24
42
89
52
51
70
49
36
64
10
76
66
14
3
13
6
79
33
32
95
94
11
9
61
68
54
74
46
17
84
15
2
29
30
57
78
56
4
55
16
37
8
92
98
59
75
12
65

> <PUBCHEM_MMFF94_PARTIAL_CHARGES>
17
1 -0.34
11 0.3
14 0.33
16 0.57
17 0.3
18 0.3
19 0.34
2 -0.57
21 0.3
22 0.57
23 0.06
3 -0.57
4 -0.66
46 0.36
47 0.36
5 -0.66
6 -0.99

> <PUBCHEM_EFFECTIVE_ROTOR_COUNT>
8.2

> <PUBCHEM_PHARMACOPHORE_FEATURES>
7
1 15 hydrophobe
1 2 acceptor
1 3 acceptor
1 6 cation
1 6 donor
5 5 17 18 19 20 rings
6 7 9 10 11 12 13 rings

> <PUBCHEM_HEAVY_ATOM_COUNT>
23

> <PUBCHEM_ATOM_DEF_STEREO_COUNT>
3

> <PUBCHEM_ATOM_UDEF_STEREO_COUNT>
0

> <PUBCHEM_BOND_DEF_STEREO_COUNT>
0

> <PUBCHEM_BOND_UDEF_STEREO_COUNT>
0

> <PUBCHEM_ISOTOPIC_ATOM_COUNT>
0

> <PUBCHEM_COMPONENT_COUNT>
1

> <PUBCHEM_CACTVS_TAUTO_COUNT>
1

> <PUBCHEM_CONFORMER_ID>
00F602E400000001

> <PUBCHEM_MMFF94_ENERGY>
57.0087

> <PUBCHEM_FEATURE_SELFOVERLAP>
35.52

> <PUBCHEM_SHAPE_FINGERPRINT>
10042902 136 9366762097450463897
10291535 26 18413110584789898977
10498660 4 17846785126407995848
10692045 39 18115864101458433098
10763959 59 18272094920378326476
10906281 52 18338251417617915964
11089746 13 18271517698084848880
11128504 68 13182732667362721466
117890 112 18410572894699451232
12011746 2 17775569758393138152
12107183 9 18262508188137898050
12166972 35 12895069643722174706
12403259 415 18269011841790832991
12596602 18 17313106379620010193
12633257 1 17531243997939862204
12788726 201 18341332189222669544
12969540 114 16845567626046676060
13402501 40 18342736316789199552
13583140 156 17023189370153829449
13675066 3 14779260930004594838
13740256 8 8142085364439542918
14123255 352 18410576180043529537
14178342 30 17822024141330150547
14251732 17 18410011026919403130
14251764 18 17967810578320894771
14251764 30 11458418008211264432
14251764 38 18059853999607541713
14251764 75 17839189511301145529
14341114 176 10737298926452219199
14350574 20 9079116665831969238
14466204 15 18410851053724292656
15061688 2 18342177751991800727
15163728 17 18271248226871733395
15188451 53 14635448142613961297
15238133 3 17676215653907541284
15375358 24 18413113861528270102
15463212 79 18342729711815229287
15527383 91 11818998482753332311
15537594 2 15068617185084094650
1601671 61 18413672422500212956
17980427 23 18261675977435132860
1813 80 8574426556026984723
193927 3 11674882164768553786
19489759 90 18201435917276788072
200 152 12535356709423855678
20645477 56 18273217508527383995
21033648 29 18059285569660212368
21150785 3 10735881716705663408
21279426 13 18201447935112377262
212916 134 18342161276597421986
21401589 2 18336276669365137961
21421861 104 17895461524383168786
22393880 68 16988553636891911558
22950370 63 9151167671015622675
23402539 116 18340480157567131119
23559900 14 17416404251583357158
2838139 119 18272925016511451916
2916195 48 18409450259015226377
4098825 35 16056052242577074613
474 4 18335424552042985757
495365 180 17845932931787599446
5104073 3 18335991857061987107
56616090 46 18410300203020785366
59682541 35 18334868247126782041
6328613 192 18263085560660343620
7226269 152 18334289851384819464
7495541 125 9007055764790620694
7970288 3 9294993657754250985
9981440 41 18408046204051976147

> <PUBCHEM_SHAPE_MULTIPOLES>
439.37
13.22
2.54
1.34
6.6
0.41
-0.38
-10.74
-0.61
-1.8
0.13
0.5
0.31
0.27

> <PUBCHEM_SHAPE_SELFOVERLAP>
892.576

> <PUBCHEM_SHAPE_VOLUME>
257.6

> <PUBCHEM_COORDINATE_TYPE>
2
5
10

$$$$
