46937162
  -OEChem-06112215553D

 50 53  0     1  0  0  0  0  0999 V2000
    4.2374   -1.0724   -1.9940 O   0  0  0  0  0  0  0  0  0  0  0  0
   -2.8186   -2.0383    0.1002 N   0  0  3  0  0  0  0  0  0  0  0  0
   -3.5337   -3.1927    0.2035 N   0  0  0  0  0  0  0  0  0  0  0  0
   -4.0449    2.5921   -0.2717 N   0  0  0  0  0  0  0  0  0  0  0  0
   -1.7951    3.4759   -0.1911 N   0  0  0  0  0  0  0  0  0  0  0  0
    3.9419   -2.2010    0.0316 N   0  0  0  0  0  0  0  0  0  0  0  0
    5.5563    0.8912    0.4261 N   0  0  0  0  0  0  0  0  0  0  0  0
   -3.7032   -0.9648   -0.0315 C   0  0  0  0  0  0  0  0  0  0  0  0
   -3.4764    0.3458   -0.0996 C   0  0  0  0  0  0  0  0  0  0  0  0
   -2.2389    1.0956   -0.0715 C   0  0  0  0  0  0  0  0  0  0  0  0
   -1.4145   -2.0055    0.4192 C   0  0  0  0  0  0  0  0  0  0  0  0
   -0.9020    0.7814    0.0280 C   0  0  0  0  0  0  0  0  0  0  0  0
    0.0042    1.8393    0.0171 C   0  0  0  0  0  0  0  0  0  0  0  0
   -2.6380    2.4309   -0.1775 C   0  0  0  0  0  0  0  0  0  0  0  0
   -5.0411   -1.5795   -0.0742 C   0  0  0  0  0  0  0  0  0  0  0  0
   -4.5276    1.3807   -0.2262 C   0  0  0  0  0  0  0  0  0  0  0  0
    1.4243    1.5920    0.1176 C   0  0  0  0  0  0  0  0  0  0  0  0
   -4.8696   -2.9086    0.0613 C   0  0  0  0  0  0  0  0  0  0  0  0
   -0.4834    3.1445   -0.0924 C   0  0  0  0  0  0  0  0  0  0  0  0
    1.9633    0.4061   -0.3812 C   0  0  0  0  0  0  0  0  0  0  0  0
    3.3340    0.1672   -0.2825 C   0  0  0  0  0  0  0  0  0  0  0  0
   -0.8544   -3.4144    0.4565 C   0  0  0  0  0  0  0  0  0  0  0  0
    2.2560    2.5389    0.7154 C   0  0  0  0  0  0  0  0  0  0  0  0
    4.1656    1.1142    0.3153 C   0  0  0  0  0  0  0  0  0  0  0  0
    3.6266    2.3001    0.8143 C   0  0  0  0  0  0  0  0  0  0  0  0
    3.8668   -1.0809   -0.8140 C   0  0  0  0  0  0  0  0  0  0  0  0
    3.4897   -2.1592    1.4206 C   0  0  0  0  0  0  0  0  0  0  0  0
    4.4755   -3.4787   -0.4195 C   0  0  0  0  0  0  0  0  0  0  0  0
   -0.9103   -1.6252   -0.4696 H   0  0  0  0  0  0  0  0  0  0  0  0
   -1.2211   -1.5213    1.3796 H   0  0  0  0  0  0  0  0  0  0  0  0
   -0.4505   -0.1406    0.2612 H   0  0  0  0  0  0  0  0  0  0  0  0
   -5.9834   -1.0769   -0.2104 H   0  0  0  0  0  0  0  0  0  0  0  0
   -3.1836   -4.0957   -0.0886 H   0  0  0  0  0  0  0  0  0  0  0  0
   -5.5946    1.1303   -0.2742 H   0  0  0  0  0  0  0  0  0  0  0  0
   -5.5997   -3.7006    0.0417 H   0  0  0  0  0  0  0  0  0  0  0  0
    0.1702    4.0108   -0.1372 H   0  0  0  0  0  0  0  0  0  0  0  0
    1.3507   -0.3381   -0.8849 H   0  0  0  0  0  0  0  0  0  0  0  0
    0.2280   -3.3762    0.6234 H   0  0  0  0  0  0  0  0  0  0  0  0
   -1.0165   -3.9517   -0.4850 H   0  0  0  0  0  0  0  0  0  0  0  0
   -1.2847   -4.0039    1.2737 H   0  0  0  0  0  0  0  0  0  0  0  0
    1.8766    3.4625    1.1439 H   0  0  0  0  0  0  0  0  0  0  0  0
    4.2629    3.0432    1.2884 H   0  0  0  0  0  0  0  0  0  0  0  0
    5.9712    0.0379    0.0778 H   0  0  0  0  0  0  0  0  0  0  0  0
    6.1434    1.5890    0.8638 H   0  0  0  0  0  0  0  0  0  0  0  0
    4.3430   -2.3880    2.0665 H   0  0  0  0  0  0  0  0  0  0  0  0
    3.0732   -1.2000    1.7265 H   0  0  0  0  0  0  0  0  0  0  0  0
    2.7221   -2.9272    1.5567 H   0  0  0  0  0  0  0  0  0  0  0  0
    3.6979   -4.2414   -0.3210 H   0  0  0  0  0  0  0  0  0  0  0  0
    4.7934   -3.4242   -1.4637 H   0  0  0  0  0  0  0  0  0  0  0  0
    5.3346   -3.7432    0.2034 H   0  0  0  0  0  0  0  0  0  0  0  0
  1 26  2  0  0  0  0
  2  3  1  0  0  0  0
  2  8  1  0  0  0  0
  2 11  1  0  0  0  0
  3 18  1  0  0  0  0
  3 33  1  0  0  0  0
  4 14  1  0  0  0  0
  4 16  2  0  0  0  0
  5 14  1  0  0  0  0
  5 19  2  0  0  0  0
  6 26  1  0  0  0  0
  6 27  1  0  0  0  0
  6 28  1  0  0  0  0
  7 24  1  0  0  0  0
  7 43  1  0  0  0  0
  7 44  1  0  0  0  0
  8  9  2  0  0  0  0
  8 15  1  0  0  0  0
  9 10  1  0  0  0  0
  9 16  1  0  0  0  0
 10 12  1  0  0  0  0
 10 14  2  0  0  0  0
 11 22  1  0  0  0  0
 11 29  1  0  0  0  0
 11 30  1  0  0  0  0
 12 13  2  0  0  0  0
 12 31  1  0  0  0  0
 13 17  1  0  0  0  0
 13 19  1  0  0  0  0
 15 18  2  0  0  0  0
 15 32  1  0  0  0  0
 16 34  1  0  0  0  0
 17 20  2  0  0  0  0
 17 23  1  0  0  0  0
 18 35  1  0  0  0  0
 19 36  1  0  0  0  0
 20 21  1  0  0  0  0
 20 37  1  0  0  0  0
 21 24  2  0  0  0  0
 21 26  1  0  0  0  0
 22 38  1  0  0  0  0
 22 39  1  0  0  0  0
 22 40  1  0  0  0  0
 23 25  2  0  0  0  0
 23 41  1  0  0  0  0
 24 25  1  0  0  0  0
 25 42  1  0  0  0  0
 27 45  1  0  0  0  0
 27 46  1  0  0  0  0
 27 47  1  0  0  0  0
 28 48  1  0  0  0  0
 28 49  1  0  0  0  0
 28 50  1  0  0  0  0
M  END
> <PUBCHEM_COMPOUND_CID>
46937162

> <PUBCHEM_CONFORMER_RMSD>
0.8

> <PUBCHEM_CONFORMER_DIVERSEORDER>
2
5
6
3
7
1
8
4

> <PUBCHEM_MMFF94_PARTIAL_CHARGES>
36
1 -0.57
10 0.03
11 0.37
12 -0.15
14 0.49
15 -0.15
16 0.38
18 -0.05
19 0.16
2 -0.47
20 -0.15
21 0.09
23 -0.15
24 0.1
25 -0.15
26 0.54
27 0.3
28 0.3
3 -0.5
31 0.15
32 0.15
33 0.4
34 0.06
35 0.15
36 0.15
37 0.15
4 -0.63
41 0.15
42 0.15
43 0.4
44 0.4
5 -0.62
6 -0.66
7 -0.9
8 0.1
9 -0.01

> <PUBCHEM_EFFECTIVE_ROTOR_COUNT>
4.4

> <PUBCHEM_PHARMACOPHORE_FEATURES>
10
1 1 acceptor
1 3 donor
1 4 acceptor
1 5 acceptor
1 7 cation
1 7 donor
5 2 3 8 15 18 rings
5 4 9 10 14 16 rings
6 17 20 21 23 24 25 rings
6 5 10 12 13 14 19 rings

> <PUBCHEM_HEAVY_ATOM_COUNT>
28

> <PUBCHEM_ATOM_DEF_STEREO_COUNT>
0

> <PUBCHEM_ATOM_UDEF_STEREO_COUNT>
0

> <PUBCHEM_BOND_DEF_STEREO_COUNT>
1

> <PUBCHEM_BOND_UDEF_STEREO_COUNT>
0

> <PUBCHEM_ISOTOPIC_ATOM_COUNT>
0

> <PUBCHEM_COMPONENT_COUNT>
1

> <PUBCHEM_CACTVS_TAUTO_COUNT>
17

> <PUBCHEM_CONFORMER_ID>
02CC344A00000002

> <PUBCHEM_MMFF94_ENERGY>
161.8903

> <PUBCHEM_FEATURE_SELFOVERLAP>
50.889

> <PUBCHEM_SHAPE_FINGERPRINT>
10074138 170 16543513365462616024
10616163 171 18410855498809267228
10693767 8 17984964141933546759
1100329 8 17258782512331363333
11186622 123 18334852801396022826
11513181 2 18273492373207302070
11552529 35 17773877674163920353
11963148 33 18409157819451791506
12422481 6 18269580324390048107
12633257 1 18126855901667518304
13140716 1 18340768157016187961
13402501 40 18340769363543165418
13583140 156 17916859239555143017
14790565 3 17835243346778047825
14866123 147 18268999683413216265
14910302 57 18261667078247259268
15001296 14 18260542299368662971
15196674 1 18410573972324753423
15320467 1 18266457792259950794
15352361 1 18266458887692025069
15927050 60 18267862784422312549
17492 89 18411417306460176038
17909252 39 18412553123805208154
1813 80 17531526593987725829
19591789 44 18409728443972940499
19958102 18 18188475901354809845
21279426 13 18336255796177591511
221490 88 18342459244612571724
22393880 68 18410862027639806686
23559900 14 18341327804213741420
316301 35 18411134698017774506
3298306 158 17977377231721181565
338550 245 18260551104304833542
3882209 13 16758561338332896818
4073 2 18411981381753174840
44062 13 18339082571140996095
463206 1 18121503444957201418
474144 1 17461997657466026922
5047190 48 17475225177437768016
5104073 3 18201719526694405616
5309563 4 17905049509963270075
56633871 153 18123481733349559563
6433294 58 18411981330440089082
6823239 73 18272373032305668146
9709674 26 18413107277206495668

> <PUBCHEM_SHAPE_MULTIPOLES>
540.47
11.61
4.95
0.9
1.68
1.48
0.11
5.4
0.62
-1.31
-0.38
1.01
0.27
1.19

> <PUBCHEM_SHAPE_SELFOVERLAP>
1193.989

> <PUBCHEM_SHAPE_VOLUME>
292.8

> <PUBCHEM_COORDINATE_TYPE>
2
5
10

$$$$
