160478
  -OEChem-06112215543D

 21 22  0     0  0  0  0  0  0999 V2000
    1.7022    2.5606   -0.0031 O   0  0  0  0  0  0  0  0  0  0  0  0
   -0.9111    2.9083    0.0048 O   0  0  0  0  0  0  0  0  0  0  0  0
    3.5438   -1.7942    0.0008 O   0  0  0  0  0  0  0  0  0  0  0  0
   -1.4893   -2.5392   -0.0005 O   0  0  0  0  0  0  0  0  0  0  0  0
   -3.6149   -0.9266    0.0013 O   0  0  0  0  0  0  0  0  0  0  0  0
    0.1676    0.6711   -0.0003 C   0  0  0  0  0  0  0  0  0  0  0  0
    0.0436   -0.7272    0.0000 C   0  0  0  0  0  0  0  0  0  0  0  0
    1.4611    1.2170   -0.0001 C   0  0  0  0  0  0  0  0  0  0  0  0
   -1.0322    1.5276   -0.0014 C   0  0  0  0  0  0  0  0  0  0  0  0
    1.1704   -1.5577    0.0005 C   0  0  0  0  0  0  0  0  0  0  0  0
   -1.3002   -1.3332   -0.0003 C   0  0  0  0  0  0  0  0  0  0  0  0
    2.4435   -0.9935    0.0007 C   0  0  0  0  0  0  0  0  0  0  0  0
    2.5889    0.3910    0.0004 C   0  0  0  0  0  0  0  0  0  0  0  0
   -2.2743    1.0259   -0.0016 C   0  0  0  0  0  0  0  0  0  0  0  0
   -2.4992   -0.4299   -0.0010 C   0  0  0  0  0  0  0  0  0  0  0  0
    1.0678   -2.6398    0.0007 H   0  0  0  0  0  0  0  0  0  0  0  0
    3.5813    0.8361    0.0000 H   0  0  0  0  0  0  0  0  0  0  0  0
   -3.1564    1.6574   -0.0003 H   0  0  0  0  0  0  0  0  0  0  0  0
    0.8692    3.0555   -0.0092 H   0  0  0  0  0  0  0  0  0  0  0  0
   -1.7979    3.3074    0.0050 H   0  0  0  0  0  0  0  0  0  0  0  0
    4.3405   -1.2361    0.0009 H   0  0  0  0  0  0  0  0  0  0  0  0
  1  8  1  0  0  0  0
  1 19  1  0  0  0  0
  2  9  1  0  0  0  0
  2 20  1  0  0  0  0
  3 12  1  0  0  0  0
  3 21  1  0  0  0  0
  4 11  2  0  0  0  0
  5 15  2  0  0  0  0
  6  7  2  0  0  0  0
  6  8  1  0  0  0  0
  6  9  1  0  0  0  0
  7 10  1  0  0  0  0
  7 11  1  0  0  0  0
  8 13  2  0  0  0  0
  9 14  2  0  0  0  0
 10 12  2  0  0  0  0
 10 16  1  0  0  0  0
 11 15  1  0  0  0  0
 12 13  1  0  0  0  0
 13 17  1  0  0  0  0
 14 15  1  0  0  0  0
 14 18  1  0  0  0  0
M  END
> <PUBCHEM_COMPOUND_CID>
160478

> <PUBCHEM_CONFORMER_RMSD>
0.4

> <PUBCHEM_CONFORMER_DIVERSEORDER>
1

> <PUBCHEM_MMFF94_PARTIAL_CHARGES>
21
1 -0.53
10 -0.15
11 0.48
12 0.08
13 -0.15
14 -0.14
15 0.56
16 0.15
17 0.15
18 0.15
19 0.45
2 -0.53
20 0.45
21 0.45
3 -0.53
4 -0.57
5 -0.57
6 0.03
7 0.09
8 0.08
9 0.05

> <PUBCHEM_EFFECTIVE_ROTOR_COUNT>
0

> <PUBCHEM_PHARMACOPHORE_FEATURES>
7
1 1 donor
1 2 donor
1 3 donor
1 4 acceptor
1 5 acceptor
6 6 7 8 10 12 13 rings
6 6 7 9 11 14 15 rings

> <PUBCHEM_HEAVY_ATOM_COUNT>
15

> <PUBCHEM_ATOM_DEF_STEREO_COUNT>
0

> <PUBCHEM_ATOM_UDEF_STEREO_COUNT>
0

> <PUBCHEM_BOND_DEF_STEREO_COUNT>
0

> <PUBCHEM_BOND_UDEF_STEREO_COUNT>
0

> <PUBCHEM_ISOTOPIC_ATOM_COUNT>
0

> <PUBCHEM_COMPONENT_COUNT>
1

> <PUBCHEM_CACTVS_TAUTO_COUNT>
33

> <PUBCHEM_CONFORMER_ID>
000272DE00000001

> <PUBCHEM_MMFF94_ENERGY>
39.0888

> <PUBCHEM_FEATURE_SELFOVERLAP>
35.56

> <PUBCHEM_SHAPE_FINGERPRINT>
10967382 1 18266741461763534662
11206711 2 18336830771089778333
11471102 20 18410006650453256127
12032990 46 18408890650451610747
12382932 28 18195522816577698386
12423570 1 15610146117559326229
12524768 44 18337672035071731547
13140716 1 18338234993552057178
13897977 150 18122903393841981349
16945 1 18410856559740055334
17804303 29 18342177705211117706
193761 8 18410574002584859204
19591789 44 16540187840339322516
20510252 161 18199745860546648976
20871998 184 18129095636965581022
21501502 16 18411424994340528276
22721475 48 18411424994319279846
2334 1 18050287264876623746
23402539 116 18270385088785007871
23463225 33 18410576218555557087
23552423 10 18190744321953211254
23559900 14 17694781823367917926
2748010 2 18194965381425653382
528886 8 18195523911789129435
54173680 148 18050006597559584066
7364860 26 18342176730264097528
8809292 202 18333737909363889147

> <PUBCHEM_SHAPE_MULTIPOLES>
279.35
4.49
2.77
0.58
0.32
0.94
0
-1.64
0
-0.02
0
0.01
0
0

> <PUBCHEM_SHAPE_SELFOVERLAP>
619.96

> <PUBCHEM_SHAPE_VOLUME>
147.6

> <PUBCHEM_COORDINATE_TYPE>
2
5
10

$$$$
