131704183
  -OEChem-06112215543D

 43 42  0     1  0  0  0  0  0999 V2000
   -3.9169    1.2361   -0.4038 P   0  0  0  0  0  0  0  0  0  0  0  0
    1.9085    1.6044    1.8937 O   0  0  0  0  0  0  0  0  0  0  0  0
   -2.2112   -2.2484    1.7155 O   0  5  0  0  0  0  0  0  0  0  0  0
    0.6700    2.5562    0.2505 O   0  0  0  0  0  0  0  0  0  0  0  0
   -2.4520    1.8387   -0.0793 O   0  0  0  0  0  0  0  0  0  0  0  0
   -4.9055    2.2172    0.4179 O   0  0  0  0  0  0  0  0  0  0  0  0
   -4.2321    1.0889   -1.8628 O   0  0  0  0  0  0  0  0  0  0  0  0
    4.9536    0.2470   -1.4110 O   0  0  0  0  0  0  0  0  0  0  0  0
    3.3873    0.1829    0.3035 N   0  0  0  0  0  0  0  0  0  0  0  0
   -2.9756   -1.1188   -0.1621 N   0  0  0  0  0  0  0  0  0  0  0  0
    6.9025   -0.5631    0.3539 N   0  0  0  0  0  0  0  0  0  0  0  0
    0.5594   -0.9548   -0.3376 C   0  0  0  0  0  0  0  0  0  0  0  0
    1.4280   -0.0133   -1.1833 C   0  0  0  0  0  0  0  0  0  0  0  0
   -0.3566   -1.8036   -1.2253 C   0  0  0  0  0  0  0  0  0  0  0  0
    2.3388    0.9102   -0.3651 C   0  0  1  0  0  0  0  0  0  0  0  0
   -1.2689   -2.7328   -0.4181 C   0  0  0  0  0  0  0  0  0  0  0  0
   -2.2470   -1.9641    0.4985 C   0  0  0  0  0  0  0  0  0  0  0  0
    1.5464    1.7748    0.5997 C   0  0  0  0  0  0  0  0  0  0  0  0
   -3.9539   -0.2902    0.5403 C   0  0  2  0  0  0  0  0  0  0  0  0
    4.6195   -0.0921   -0.2779 C   0  0  0  0  0  0  0  0  0  0  0  0
   -5.3092   -0.9773    0.5119 C   0  0  0  0  0  0  0  0  0  0  0  0
    5.5149   -0.8980    0.6408 C   0  0  0  0  0  0  0  0  0  0  0  0
    1.1980   -1.6126    0.2635 H   0  0  0  0  0  0  0  0  0  0  0  0
   -0.0457   -0.3646    0.3585 H   0  0  0  0  0  0  0  0  0  0  0  0
    2.0364   -0.6089   -1.8756 H   0  0  0  0  0  0  0  0  0  0  0  0
    0.7656    0.6075   -1.8008 H   0  0  0  0  0  0  0  0  0  0  0  0
   -0.9611   -1.1460   -1.8617 H   0  0  0  0  0  0  0  0  0  0  0  0
    0.2567   -2.4150   -1.8985 H   0  0  0  0  0  0  0  0  0  0  0  0
    2.8298    1.6087   -1.0549 H   0  0  0  0  0  0  0  0  0  0  0  0
   -0.6575   -3.4340    0.1646 H   0  0  0  0  0  0  0  0  0  0  0  0
   -1.8712   -3.3336   -1.1120 H   0  0  0  0  0  0  0  0  0  0  0  0
    3.1949   -0.1683    1.2373 H   0  0  0  0  0  0  0  0  0  0  0  0
   -3.6646   -0.0605    1.5718 H   0  0  0  0  0  0  0  0  0  0  0  0
   -5.6210   -1.1890   -0.5165 H   0  0  0  0  0  0  0  0  0  0  0  0
   -6.0730   -0.3362    0.9628 H   0  0  0  0  0  0  0  0  0  0  0  0
   -5.2872   -1.9252    1.0583 H   0  0  0  0  0  0  0  0  0  0  0  0
    5.3289   -1.9624    0.4676 H   0  0  0  0  0  0  0  0  0  0  0  0
    5.2970   -0.6678    1.6882 H   0  0  0  0  0  0  0  0  0  0  0  0
    1.3862    2.1731    2.4986 H   0  0  0  0  0  0  0  0  0  0  0  0
   -2.1735    2.6718   -0.5157 H   0  0  0  0  0  0  0  0  0  0  0  0
   -5.0734    3.1196    0.0722 H   0  0  0  0  0  0  0  0  0  0  0  0
    7.1321   -0.8427   -0.5993 H   0  0  0  0  0  0  0  0  0  0  0  0
    7.5128   -1.1089    0.9610 H   0  0  0  0  0  0  0  0  0  0  0  0
  1  5  1  0  0  0  0
  1  6  1  0  0  0  0
  1  7  2  0  0  0  0
  1 19  1  0  0  0  0
  2 18  1  0  0  0  0
  2 39  1  0  0  0  0
  3 17  1  0  0  0  0
  4 18  2  0  0  0  0
  5 40  1  0  0  0  0
  6 41  1  0  0  0  0
  8 20  2  0  0  0  0
  9 15  1  0  0  0  0
  9 20  1  0  0  0  0
  9 32  1  0  0  0  0
 10 17  2  0  0  0  0
 10 19  1  0  0  0  0
 11 22  1  0  0  0  0
 11 42  1  0  0  0  0
 11 43  1  0  0  0  0
 12 13  1  0  0  0  0
 12 14  1  0  0  0  0
 12 23  1  0  0  0  0
 12 24  1  0  0  0  0
 13 15  1  0  0  0  0
 13 25  1  0  0  0  0
 13 26  1  0  0  0  0
 14 16  1  0  0  0  0
 14 27  1  0  0  0  0
 14 28  1  0  0  0  0
 15 18  1  0  0  0  0
 15 29  1  0  0  0  0
 16 17  1  0  0  0  0
 16 30  1  0  0  0  0
 16 31  1  0  0  0  0
 19 21  1  0  0  0  0
 19 33  1  0  0  0  0
 20 22  1  0  0  0  0
 21 34  1  0  0  0  0
 21 35  1  0  0  0  0
 21 36  1  0  0  0  0
 22 37  1  0  0  0  0
 22 38  1  0  0  0  0
M  CHG  1   3  -1
M  END
> <PUBCHEM_COMPOUND_CID>
131704183

> <PUBCHEM_CONFORMER_RMSD>
1

> <PUBCHEM_CONFORMER_DIVERSEORDER>
1
33
25
10
20
46
6
2
35
55
27
30
32
57
31
15
61
40
21
54
28
60
5
22
50
34
43
9
8
48
53
24
36
7
14
58
16
12
13
59
29
17
56
3
49
23
51
47
19
11
44
39
26
37
52
4
41
18
45
42
38

> <PUBCHEM_MMFF94_PARTIAL_CHARGES>
24
1 1.24
10 -0.7
11 -0.99
15 0.36
16 0.06
17 0.25
18 0.66
19 0.25
2 -0.65
20 0.57
22 0.33
3 -0.86
32 0.37
39 0.5
4 -0.57
40 0.5
41 0.5
42 0.36
43 0.36
5 -0.77
6 -0.77
7 -0.7
8 -0.57
9 -0.73

> <PUBCHEM_EFFECTIVE_ROTOR_COUNT>
11

> <PUBCHEM_PHARMACOPHORE_FEATURES>
12
1 11 cation
1 11 donor
1 2 acceptor
1 4 acceptor
1 5 acceptor
1 6 acceptor
1 7 acceptor
1 8 acceptor
1 9 donor
3 2 4 18 anion
4 1 5 6 7 anion
4 12 13 14 16 hydrophobe

> <PUBCHEM_HEAVY_ATOM_COUNT>
22

> <PUBCHEM_ATOM_DEF_STEREO_COUNT>
2

> <PUBCHEM_ATOM_UDEF_STEREO_COUNT>
0

> <PUBCHEM_BOND_DEF_STEREO_COUNT>
1

> <PUBCHEM_BOND_UDEF_STEREO_COUNT>
0

> <PUBCHEM_ISOTOPIC_ATOM_COUNT>
0

> <PUBCHEM_COMPONENT_COUNT>
1

> <PUBCHEM_CACTVS_TAUTO_COUNT>
2

> <PUBCHEM_CONFORMER_ID>
07D9A57700000001

> <PUBCHEM_MMFF94_ENERGY>
1.8406

> <PUBCHEM_FEATURE_SELFOVERLAP>
60.993

> <PUBCHEM_SHAPE_FINGERPRINT>
10759866 29 18117008886357431932
12403260 363 18270115842023144639
12596602 18 16298677186821292871
12633257 1 18129401430410845635
13402501 40 18342179947004659325
14251731 8 18407757028367286006
14251732 17 18342176635326424294
14466204 15 18413389821862022242
15295992 7 18059573654338331577
16120349 21 17973155137831956282
17349148 13 16486981716941919446
17980427 23 13614242637308304794
192875 21 16415210012901257370
20567600 254 18260822658524301629
21279426 13 18197502826872205590
21524375 3 18340775918175429951
23402539 116 18131627868010300165
351380 180 18342176713073724335
3524813 1 18342178899280467913
5207 217 9439399138759232894
5385378 56 18197788712801707211
6328613 192 18410013269320080380
7226269 152 18341892966053948464

> <PUBCHEM_SHAPE_MULTIPOLES>
400.57
12.94
2.69
1.3
10.74
0.02
-0.02
0.33
0.89
-2.43
0.38
-0.12
-0.01
0.79

> <PUBCHEM_SHAPE_SELFOVERLAP>
762.698

> <PUBCHEM_SHAPE_VOLUME>
245.5

> <PUBCHEM_COORDINATE_TYPE>
2
5
10

$$$$
