99594
  -OEChem-06112217133D

 30 30  0     1  0  0  0  0  0999 V2000
   -2.5527    1.7151    0.9659 O   0  0  0  0  0  0  0  0  0  0  0  0
   -3.8584    1.0387   -0.7662 O   0  0  0  0  0  0  0  0  0  0  0  0
   -2.9079   -1.5145   -0.6212 N   0  0  0  0  0  0  0  0  0  0  0  0
    2.3660    2.3692   -0.4303 N   0  0  0  0  0  0  0  0  0  0  0  0
    1.4553   -1.5595    0.2503 C   0  0  0  0  0  0  0  0  0  0  0  0
   -0.0552   -1.7530    0.3925 C   0  0  0  0  0  0  0  0  0  0  0  0
   -0.8033   -0.4435    0.1292 C   0  0  0  0  0  0  0  0  0  0  0  0
   -2.3262   -0.5418    0.3024 C   0  0  1  0  0  0  0  0  0  0  0  0
    1.7842   -1.0550   -1.1324 C   0  0  0  0  0  0  0  0  0  0  0  0
    1.9665   -0.6581    1.3460 C   0  0  0  0  0  0  0  0  0  0  0  0
    2.9088    1.0177   -0.2693 C   0  0  0  0  0  0  0  0  0  0  0  0
    2.4278    0.0988   -1.3638 C   0  0  0  0  0  0  0  0  0  0  0  0
    2.6099    0.4954    1.1132 C   0  0  0  0  0  0  0  0  0  0  0  0
   -3.0148    0.7907    0.0835 C   0  0  0  0  0  0  0  0  0  0  0  0
    1.9430   -2.5349    0.3739 H   0  0  0  0  0  0  0  0  0  0  0  0
   -0.2980   -2.1223    1.3972 H   0  0  0  0  0  0  0  0  0  0  0  0
   -0.3900   -2.5232   -0.3138 H   0  0  0  0  0  0  0  0  0  0  0  0
   -0.6028   -0.0778   -0.8859 H   0  0  0  0  0  0  0  0  0  0  0  0
   -0.4341    0.3351    0.8072 H   0  0  0  0  0  0  0  0  0  0  0  0
   -2.5626   -0.8673    1.3224 H   0  0  0  0  0  0  0  0  0  0  0  0
    1.4862   -1.6689   -1.9784 H   0  0  0  0  0  0  0  0  0  0  0  0
    1.8067   -0.9716    2.3745 H   0  0  0  0  0  0  0  0  0  0  0  0
    4.0002    1.0856   -0.3612 H   0  0  0  0  0  0  0  0  0  0  0  0
    2.6334    0.3851   -2.3923 H   0  0  0  0  0  0  0  0  0  0  0  0
    2.9546    1.0809    1.9623 H   0  0  0  0  0  0  0  0  0  0  0  0
   -2.7338   -1.2289   -1.5839 H   0  0  0  0  0  0  0  0  0  0  0  0
   -3.9197   -1.5449   -0.5033 H   0  0  0  0  0  0  0  0  0  0  0  0
    2.6500    2.7432   -1.3358 H   0  0  0  0  0  0  0  0  0  0  0  0
    2.7866    2.9892    0.2619 H   0  0  0  0  0  0  0  0  0  0  0  0
   -2.9792    2.5890    0.8365 H   0  0  0  0  0  0  0  0  0  0  0  0
  1 14  1  0  0  0  0
  1 30  1  0  0  0  0
  2 14  2  0  0  0  0
  3  8  1  0  0  0  0
  3 26  1  0  0  0  0
  3 27  1  0  0  0  0
  4 11  1  0  0  0  0
  4 28  1  0  0  0  0
  4 29  1  0  0  0  0
  5  6  1  0  0  0  0
  5  9  1  0  0  0  0
  5 10  1  0  0  0  0
  5 15  1  0  0  0  0
  6  7  1  0  0  0  0
  6 16  1  0  0  0  0
  6 17  1  0  0  0  0
  7  8  1  0  0  0  0
  7 18  1  0  0  0  0
  7 19  1  0  0  0  0
  8 14  1  0  0  0  0
  8 20  1  0  0  0  0
  9 12  2  0  0  0  0
  9 21  1  0  0  0  0
 10 13  2  0  0  0  0
 10 22  1  0  0  0  0
 11 12  1  0  0  0  0
 11 13  1  0  0  0  0
 11 23  1  0  0  0  0
 12 24  1  0  0  0  0
 13 25  1  0  0  0  0
M  END
> <PUBCHEM_COMPOUND_CID>
99594

> <PUBCHEM_CONFORMER_RMSD>
0.6

> <PUBCHEM_CONFORMER_DIVERSEORDER>
2
18
12
15
20
10
8
21
17
1
9
14
6
5
4
11
19
7
16
13
3

> <PUBCHEM_MMFF94_PARTIAL_CHARGES>
21
1 -0.65
10 -0.29
11 0.55
12 -0.29
13 -0.29
14 0.66
2 -0.57
21 0.15
22 0.15
24 0.15
25 0.15
26 0.36
27 0.36
28 0.36
29 0.36
3 -0.99
30 0.5
4 -0.99
5 0.28
8 0.33
9 -0.29

> <PUBCHEM_EFFECTIVE_ROTOR_COUNT>
4.4

> <PUBCHEM_PHARMACOPHORE_FEATURES>
8
1 1 acceptor
1 2 acceptor
1 3 cation
1 3 donor
1 4 cation
1 4 donor
3 1 2 14 anion
6 5 9 10 11 12 13 rings

> <PUBCHEM_HEAVY_ATOM_COUNT>
14

> <PUBCHEM_ATOM_DEF_STEREO_COUNT>
1

> <PUBCHEM_ATOM_UDEF_STEREO_COUNT>
0

> <PUBCHEM_BOND_DEF_STEREO_COUNT>
0

> <PUBCHEM_BOND_UDEF_STEREO_COUNT>
0

> <PUBCHEM_ISOTOPIC_ATOM_COUNT>
0

> <PUBCHEM_COMPONENT_COUNT>
1

> <PUBCHEM_CACTVS_TAUTO_COUNT>
1

> <PUBCHEM_CONFORMER_ID>
0001850A00000002

> <PUBCHEM_MMFF94_ENERGY>
8.438

> <PUBCHEM_FEATURE_SELFOVERLAP>
40.653

> <PUBCHEM_SHAPE_FINGERPRINT>
10498660 4 18411701006377463797
11715629 250 18412829105127863127
12162725 195 18336539495029554275
12725867 57 18196370308726759902
12932764 1 17967538930535383919
13618510 140 18410015441871808041
13764800 53 18188225289506757235
14350558 41 10303813172423479686
15775835 57 18040716978287504340
17357990 137 18334293163009813362
18186145 218 18270972262438211911
18522851 12 10447376495835386695
20233049 118 18113904810565975548
20361792 2 12031789162599531043
20645477 70 11167641154608149897
20671657 1 18337674096656358490
21524375 3 18191023602618377934
21947302 44 18342744004959344710
230 275 18413388722239468802
23557571 272 17774430698332129499
251288 83 12685676475621549201
305870 269 18260264140286455506
4175511 335 16128660704387382500
5939293 188 18337386136369104444
6333272 397 18262519307259314843
8050 44 18408884070345370541
94968 8 11239706513503863245

> <PUBCHEM_SHAPE_MULTIPOLES>
266.41
6.09
2
1.22
4.56
0.45
0
2.49
0.64
-0.14
0.02
-0.69
-0.03
-0.33

> <PUBCHEM_SHAPE_SELFOVERLAP>
532.417

> <PUBCHEM_SHAPE_VOLUME>
155.9

> <PUBCHEM_COORDINATE_TYPE>
2
5
10

$$$$
