49867129
  -OEChem-06112217083D

 29 28  0     1  0  0  0  0  0999 V2000
   -0.1725   -1.2539   -1.1622 S   0  0  0  0  0  0  0  0  0  0  0  0
   -1.6811   -2.9936    0.2281 O   0  0  0  0  0  0  0  0  0  0  0  0
   -0.7923    1.7270    1.6401 O   0  0  0  0  0  0  0  0  0  0  0  0
   -0.8345    2.2653   -0.5605 O   0  0  0  0  0  0  0  0  0  0  0  0
    2.3706    1.0062   -1.5861 O   0  0  0  0  0  0  0  0  0  0  0  0
    2.8604    1.3521    0.6017 O   0  0  0  0  0  0  0  0  0  0  0  0
   -3.1012    0.8299   -1.0155 N   0  0  0  0  0  0  0  0  0  0  0  0
    3.2953   -1.3413    0.9314 N   0  0  0  0  0  0  0  0  0  0  0  0
   -2.2432   -0.7174    0.7299 C   0  0  0  0  0  0  0  0  0  0  0  0
   -1.7527   -1.6919   -0.3560 C   0  0  1  0  0  0  0  0  0  0  0  0
   -2.5231    0.7400    0.3246 C   0  0  1  0  0  0  0  0  0  0  0  0
    0.9347   -1.2509    0.2706 C   0  0  0  0  0  0  0  0  0  0  0  0
    2.3731   -0.9047   -0.1187 C   0  0  1  0  0  0  0  0  0  0  0  0
   -1.3069    1.6462    0.3843 C   0  0  0  0  0  0  0  0  0  0  0  0
    2.5733    0.5869   -0.3116 C   0  0  0  0  0  0  0  0  0  0  0  0
   -1.5782   -0.7593    1.6010 H   0  0  0  0  0  0  0  0  0  0  0  0
   -3.1920   -1.1285    1.1070 H   0  0  0  0  0  0  0  0  0  0  0  0
   -2.4958   -1.7603   -1.1570 H   0  0  0  0  0  0  0  0  0  0  0  0
   -3.2492    1.1658    1.0291 H   0  0  0  0  0  0  0  0  0  0  0  0
    0.8975   -2.2556    0.7063 H   0  0  0  0  0  0  0  0  0  0  0  0
    0.5764   -0.5434    1.0224 H   0  0  0  0  0  0  0  0  0  0  0  0
    2.6737   -1.4217   -1.0380 H   0  0  0  0  0  0  0  0  0  0  0  0
   -3.3892    1.7901   -1.2011 H   0  0  0  0  0  0  0  0  0  0  0  0
   -3.9501    0.2670   -1.0589 H   0  0  0  0  0  0  0  0  0  0  0  0
   -2.5730   -3.2298    0.5351 H   0  0  0  0  0  0  0  0  0  0  0  0
    4.2565   -1.1843    0.6297 H   0  0  0  0  0  0  0  0  0  0  0  0
    3.2044   -2.3469    1.0717 H   0  0  0  0  0  0  0  0  0  0  0  0
   -0.0112    2.3192    1.6769 H   0  0  0  0  0  0  0  0  0  0  0  0
    2.4900    1.9758   -1.6757 H   0  0  0  0  0  0  0  0  0  0  0  0
  1 10  1  0  0  0  0
  1 12  1  0  0  0  0
  2 10  1  0  0  0  0
  2 25  1  0  0  0  0
  3 14  1  0  0  0  0
  3 28  1  0  0  0  0
  4 14  2  0  0  0  0
  5 15  1  0  0  0  0
  5 29  1  0  0  0  0
  6 15  2  0  0  0  0
  7 11  1  0  0  0  0
  7 23  1  0  0  0  0
  7 24  1  0  0  0  0
  8 13  1  0  0  0  0
  8 26  1  0  0  0  0
  8 27  1  0  0  0  0
  9 10  1  0  0  0  0
  9 11  1  0  0  0  0
  9 16  1  0  0  0  0
  9 17  1  0  0  0  0
 10 18  1  0  0  0  0
 11 14  1  0  0  0  0
 11 19  1  0  0  0  0
 12 13  1  0  0  0  0
 12 20  1  0  0  0  0
 12 21  1  0  0  0  0
 13 15  1  0  0  0  0
 13 22  1  0  0  0  0
M  END
> <PUBCHEM_COMPOUND_CID>
49867129

> <PUBCHEM_CONFORMER_RMSD>
0.8

> <PUBCHEM_CONFORMER_DIVERSEORDER>
1
117
83
137
131
91
108
181
133
53
92
149
111
68
160
109
77
4
172
51
47
118
134
35
41
75
168
46
161
22
88
182
84
143
107
55
31
120
147
37
180
21
3
127
42
124
165
28
82
164
59
33
96
52
171
14
140
185
146
156
43
73
5
169
81
89
157
16
65
110
187
6
150
112
25
48
155
101
139
38
32
179
54
154
95
50
170
93
166
100
125
136
45
126
8
188
87
104
103
177
39
119
74
13
142
130
78
94
62
60
19
72
23
151
49
153
113
173
121
135
98
29
17
184
186
56
30
85
61
44
57
141
63
129
159
123
183
132
115
189
34
158
15
144
138
26
70
11
76
66
97
79
64
99
178
176
128
106
116
152
36
58
67
105
27
12
40
122
145
102
69
148
71
24
162
86
167
18
7
174
20
80
2
90
9
163
114
175
10

> <PUBCHEM_MMFF94_PARTIAL_CHARGES>
21
1 -0.46
10 0.51
11 0.33
12 0.23
13 0.33
14 0.66
15 0.66
2 -0.68
23 0.36
24 0.36
25 0.4
26 0.36
27 0.36
28 0.5
29 0.5
3 -0.65
4 -0.57
5 -0.65
6 -0.57
7 -0.99
8 -0.99

> <PUBCHEM_EFFECTIVE_ROTOR_COUNT>
7

> <PUBCHEM_PHARMACOPHORE_FEATURES>
12
1 2 acceptor
1 2 donor
1 3 acceptor
1 4 acceptor
1 5 acceptor
1 6 acceptor
1 7 cation
1 7 donor
1 8 cation
1 8 donor
3 3 4 14 anion
3 5 6 15 anion

> <PUBCHEM_HEAVY_ATOM_COUNT>
15

> <PUBCHEM_ATOM_DEF_STEREO_COUNT>
3

> <PUBCHEM_ATOM_UDEF_STEREO_COUNT>
0

> <PUBCHEM_BOND_DEF_STEREO_COUNT>
0

> <PUBCHEM_BOND_UDEF_STEREO_COUNT>
0

> <PUBCHEM_ISOTOPIC_ATOM_COUNT>
0

> <PUBCHEM_COMPONENT_COUNT>
1

> <PUBCHEM_CACTVS_TAUTO_COUNT>
1

> <PUBCHEM_CONFORMER_ID>
02F8E97900000001

> <PUBCHEM_MMFF94_ENERGY>
18.1236

> <PUBCHEM_FEATURE_SELFOVERLAP>
61.016

> <PUBCHEM_SHAPE_FINGERPRINT>
100427 49 17839737402649943623
13764800 53 18270975612449412267
14251711 518 18198060481025345102
15775835 57 18410865338869746032
16945 1 18342463590623375698
17846911 113 18201152148966895953
22802520 49 17845117145525018814
23557571 272 18130230479237082726
2748010 2 18056756748302430883
2897 32 17833557064695790469
537710 114 18412548717184177077

> <PUBCHEM_SHAPE_MULTIPOLES>
273.23
4.92
2.63
1.21
2.26
0.48
0.11
-0.35
-0.19
-1.01
-0.2
0.12
-0.25
-0.29

> <PUBCHEM_SHAPE_SELFOVERLAP>
511.33

> <PUBCHEM_SHAPE_VOLUME>
170.3

> <PUBCHEM_COORDINATE_TYPE>
2
5
10

$$$$
