17754209
  -OEChem-06112215543D

 25 25  0     1  0  0  0  0  0999 V2000
   -0.2297   -2.6906   -0.1702 O   0  0  0  0  0  0  0  0  0  0  0  0
    1.8735    1.5633   -1.2872 O   0  0  0  0  0  0  0  0  0  0  0  0
    3.6149    1.5122    0.1662 O   0  0  0  0  0  0  0  0  0  0  0  0
   -3.9611    0.1955   -0.6108 O   0  0  0  0  0  0  0  0  0  0  0  0
    3.5439   -1.2320    0.0883 N   0  0  0  0  0  0  0  0  0  0  0  0
   -2.5847    2.2456    0.4913 N   0  0  0  0  0  0  0  0  0  0  0  0
    1.3182   -0.7121    0.9717 C   0  0  0  0  0  0  0  0  0  0  0  0
    2.3003   -0.5133   -0.1847 C   0  0  1  0  0  0  0  0  0  0  0  0
   -0.0978   -0.4108    0.5639 C   0  0  0  0  0  0  0  0  0  0  0  0
   -0.8833   -1.4809   -0.0351 C   0  0  0  0  0  0  0  0  0  0  0  0
   -0.6144    0.8146    0.7516 C   0  0  0  0  0  0  0  0  0  0  0  0
    2.6861    0.9421   -0.3910 C   0  0  0  0  0  0  0  0  0  0  0  0
   -2.0059    1.1006    0.3486 C   0  0  0  0  0  0  0  0  0  0  0  0
   -2.1527   -1.3227   -0.4342 C   0  0  0  0  0  0  0  0  0  0  0  0
   -2.8073   -0.0116   -0.2686 C   0  0  0  0  0  0  0  0  0  0  0  0
    1.6057   -0.0616    1.8106 H   0  0  0  0  0  0  0  0  0  0  0  0
    1.3801   -1.7299    1.3793 H   0  0  0  0  0  0  0  0  0  0  0  0
    1.8998   -0.9071   -1.1267 H   0  0  0  0  0  0  0  0  0  0  0  0
   -0.0406    1.6197    1.1971 H   0  0  0  0  0  0  0  0  0  0  0  0
   -2.7277   -2.1264   -0.8790 H   0  0  0  0  0  0  0  0  0  0  0  0
    4.1618   -1.1691   -0.7204 H   0  0  0  0  0  0  0  0  0  0  0  0
    3.3463   -2.2240    0.2149 H   0  0  0  0  0  0  0  0  0  0  0  0
   -0.8442   -3.3248   -0.5784 H   0  0  0  0  0  0  0  0  0  0  0  0
    2.1247    2.5025   -1.4180 H   0  0  0  0  0  0  0  0  0  0  0  0
   -1.9444    2.9220    0.9206 H   0  0  0  0  0  0  0  0  0  0  0  0
  1 10  1  0  0  0  0
  1 23  1  0  0  0  0
  2 12  1  0  0  0  0
  2 24  1  0  0  0  0
  3 12  2  0  0  0  0
  4 15  2  0  0  0  0
  5  8  1  0  0  0  0
  5 21  1  0  0  0  0
  5 22  1  0  0  0  0
  6 13  2  0  0  0  0
  6 25  1  0  0  0  0
  7  8  1  0  0  0  0
  7  9  1  0  0  0  0
  7 16  1  0  0  0  0
  7 17  1  0  0  0  0
  8 12  1  0  0  0  0
  8 18  1  0  0  0  0
  9 10  1  0  0  0  0
  9 11  2  0  0  0  0
 10 14  2  0  0  0  0
 11 13  1  0  0  0  0
 11 19  1  0  0  0  0
 13 15  1  0  0  0  0
 14 15  1  0  0  0  0
 14 20  1  0  0  0  0
M  END
> <PUBCHEM_COMPOUND_CID>
17754209

> <PUBCHEM_CONFORMER_RMSD>
0.6

> <PUBCHEM_CONFORMER_DIVERSEORDER>
1
9
5
11
6
13
15
2
14
17
7
10
16
3
8
12
4

> <PUBCHEM_MMFF94_PARTIAL_CHARGES>
22
1 -0.53
10 0.08
11 -0.14
12 0.66
13 0.44
14 -0.14
15 0.56
19 0.15
2 -0.65
20 0.15
21 0.36
22 0.36
23 0.45
24 0.5
25 0.4
3 -0.57
4 -0.57
5 -0.99
6 -0.85
7 0.14
8 0.33
9 -0.14

> <PUBCHEM_EFFECTIVE_ROTOR_COUNT>
3

> <PUBCHEM_PHARMACOPHORE_FEATURES>
10
1 1 donor
1 2 acceptor
1 3 acceptor
1 4 acceptor
1 5 cation
1 5 donor
1 6 acceptor
1 6 donor
3 2 3 12 anion
6 9 10 11 13 14 15 rings

> <PUBCHEM_HEAVY_ATOM_COUNT>
15

> <PUBCHEM_ATOM_DEF_STEREO_COUNT>
1

> <PUBCHEM_ATOM_UDEF_STEREO_COUNT>
0

> <PUBCHEM_BOND_DEF_STEREO_COUNT>
0

> <PUBCHEM_BOND_UDEF_STEREO_COUNT>
0

> <PUBCHEM_ISOTOPIC_ATOM_COUNT>
0

> <PUBCHEM_COMPONENT_COUNT>
1

> <PUBCHEM_CACTVS_TAUTO_COUNT>
3

> <PUBCHEM_CONFORMER_ID>
010EE86100000001

> <PUBCHEM_MMFF94_ENERGY>
23.21

> <PUBCHEM_FEATURE_SELFOVERLAP>
50.811

> <PUBCHEM_SHAPE_FINGERPRINT>
12162725 195 18411700963226973404
12173636 292 18412822499573767533
12491281 212 18335149690946808200
14897335 6 18409445925324464616
14993402 34 18261956249973922142
15442244 35 18337952269188054546
15775835 57 18186522124309388460
16945 1 18195815286770965368
18186145 218 18409452457547715788
20361792 2 13758081792009493040
20645476 183 18260258668477157667
20653085 51 18337119972723314243
21524375 3 18334576798086119923
23402539 116 18271232919608030516
23552423 10 18124594180954288779
23557571 272 17985272017208366726
23559900 14 18130784595043825224
353137 74 18409445920808022737
474 4 17749673003720822652
537710 114 18411138073841125989
53812653 8 18412824681628007417
69090 78 18411978074527519302
7364860 26 18341328916720904610
9981440 41 17757830409700478056

> <PUBCHEM_SHAPE_MULTIPOLES>
275.25
5.78
2.16
0.88
1.22
0.26
0.02
-1.63
0.9
-0.17
0.07
0.11
-0.15
-0.62

> <PUBCHEM_SHAPE_SELFOVERLAP>
572.499

> <PUBCHEM_SHAPE_VOLUME>
155.2

> <PUBCHEM_COORDINATE_TYPE>
2
5
10

$$$$
