146797
  -OEChem-06112215543D

 47 49  0     0  0  0  0  0  0999 V2000
   -1.4012   -2.5300   -0.0294 O   0  0  0  0  0  0  0  0  0  0  0  0
   -0.0849    2.0714   -0.0460 O   0  0  0  0  0  0  0  0  0  0  0  0
   -2.6200    2.8052    0.0019 O   0  0  0  0  0  0  0  0  0  0  0  0
    3.7099    0.2760    0.0020 C   0  0  0  0  0  0  0  0  0  0  0  0
    5.2036   -0.0440    0.0168 C   0  0  0  0  0  0  0  0  0  0  0  0
    3.0478   -0.2890   -1.2613 C   0  0  0  0  0  0  0  0  0  0  0  0
    3.0272   -0.2660    1.2644 C   0  0  0  0  0  0  0  0  0  0  0  0
    0.8623   -0.5674   -0.0133 C   0  0  0  0  0  0  0  0  0  0  0  0
    1.5428   -0.0244   -1.2762 C   0  0  0  0  0  0  0  0  0  0  0  0
    1.5218   -0.0031    1.2504 C   0  0  0  0  0  0  0  0  0  0  0  0
    5.8533    0.5663    1.2702 C   0  0  0  0  0  0  0  0  0  0  0  0
    5.4086   -1.5683    0.0323 C   0  0  0  0  0  0  0  0  0  0  0  0
    5.8735    0.5436   -1.2367 C   0  0  0  0  0  0  0  0  0  0  0  0
   -0.6041   -0.2632   -0.0202 C   0  0  0  0  0  0  0  0  0  0  0  0
   -1.6079   -1.1633   -0.0151 C   0  0  0  0  0  0  0  0  0  0  0  0
   -0.9331    1.1900   -0.0245 C   0  0  0  0  0  0  0  0  0  0  0  0
   -3.0351   -0.7728   -0.0001 C   0  0  0  0  0  0  0  0  0  0  0  0
   -2.3707    1.6099   -0.0051 C   0  0  0  0  0  0  0  0  0  0  0  0
   -3.4127    0.5757    0.0053 C   0  0  0  0  0  0  0  0  0  0  0  0
   -4.0598   -1.7356    0.0099 C   0  0  0  0  0  0  0  0  0  0  0  0
   -4.7596    0.9599    0.0199 C   0  0  0  0  0  0  0  0  0  0  0  0
   -5.4062   -1.3588    0.0248 C   0  0  0  0  0  0  0  0  0  0  0  0
   -5.7553   -0.0123    0.0298 C   0  0  0  0  0  0  0  0  0  0  0  0
    3.5756    1.3675   -0.0090 H   0  0  0  0  0  0  0  0  0  0  0  0
    3.1793   -1.3716   -1.3463 H   0  0  0  0  0  0  0  0  0  0  0  0
    3.4642    0.1610   -2.1680 H   0  0  0  0  0  0  0  0  0  0  0  0
    3.4286    0.2011    2.1693 H   0  0  0  0  0  0  0  0  0  0  0  0
    3.1582   -1.3466    1.3716 H   0  0  0  0  0  0  0  0  0  0  0  0
    1.0446   -1.6465   -0.0004 H   0  0  0  0  0  0  0  0  0  0  0  0
    1.4045    1.0510   -1.4166 H   0  0  0  0  0  0  0  0  0  0  0  0
    1.1081   -0.5041   -2.1630 H   0  0  0  0  0  0  0  0  0  0  0  0
    1.0740   -0.4678    2.1388 H   0  0  0  0  0  0  0  0  0  0  0  0
    1.3817    1.0746    1.3707 H   0  0  0  0  0  0  0  0  0  0  0  0
    5.5621    0.0510    2.1909 H   0  0  0  0  0  0  0  0  0  0  0  0
    6.9462    0.4938    1.2143 H   0  0  0  0  0  0  0  0  0  0  0  0
    5.6031    1.6281    1.3730 H   0  0  0  0  0  0  0  0  0  0  0  0
    5.0212   -2.0746   -0.8552 H   0  0  0  0  0  0  0  0  0  0  0  0
    5.0073   -2.0584    0.9227 H   0  0  0  0  0  0  0  0  0  0  0  0
    6.4852   -1.7862    0.0428 H   0  0  0  0  0  0  0  0  0  0  0  0
    5.6249    1.6033   -1.3629 H   0  0  0  0  0  0  0  0  0  0  0  0
    6.9653    0.4726   -1.1618 H   0  0  0  0  0  0  0  0  0  0  0  0
    5.5973    0.0115   -2.1525 H   0  0  0  0  0  0  0  0  0  0  0  0
   -0.4561   -2.7307   -0.0830 H   0  0  0  0  0  0  0  0  0  0  0  0
   -3.8339   -2.7996    0.0069 H   0  0  0  0  0  0  0  0  0  0  0  0
   -5.0479    2.0076    0.0239 H   0  0  0  0  0  0  0  0  0  0  0  0
   -6.1809   -2.1203    0.0325 H   0  0  0  0  0  0  0  0  0  0  0  0
   -6.8013    0.2792    0.0414 H   0  0  0  0  0  0  0  0  0  0  0  0
  1 15  1  0  0  0  0
  1 43  1  0  0  0  0
  2 16  2  0  0  0  0
  3 18  2  0  0  0  0
  4  5  1  0  0  0  0
  4  6  1  0  0  0  0
  4  7  1  0  0  0  0
  4 24  1  0  0  0  0
  5 11  1  0  0  0  0
  5 12  1  0  0  0  0
  5 13  1  0  0  0  0
  6  9  1  0  0  0  0
  6 25  1  0  0  0  0
  6 26  1  0  0  0  0
  7 10  1  0  0  0  0
  7 27  1  0  0  0  0
  7 28  1  0  0  0  0
  8  9  1  0  0  0  0
  8 10  1  0  0  0  0
  8 14  1  0  0  0  0
  8 29  1  0  0  0  0
  9 30  1  0  0  0  0
  9 31  1  0  0  0  0
 10 32  1  0  0  0  0
 10 33  1  0  0  0  0
 11 34  1  0  0  0  0
 11 35  1  0  0  0  0
 11 36  1  0  0  0  0
 12 37  1  0  0  0  0
 12 38  1  0  0  0  0
 12 39  1  0  0  0  0
 13 40  1  0  0  0  0
 13 41  1  0  0  0  0
 13 42  1  0  0  0  0
 14 15  2  0  0  0  0
 14 16  1  0  0  0  0
 15 17  1  0  0  0  0
 16 18  1  0  0  0  0
 17 19  1  0  0  0  0
 17 20  2  0  0  0  0
 18 19  1  0  0  0  0
 19 21  2  0  0  0  0
 20 22  1  0  0  0  0
 20 44  1  0  0  0  0
 21 23  1  0  0  0  0
 21 45  1  0  0  0  0
 22 23  2  0  0  0  0
 22 46  1  0  0  0  0
 23 47  1  0  0  0  0
M  END
> <PUBCHEM_COMPOUND_CID>
146797

> <PUBCHEM_CONFORMER_RMSD>
0.6

> <PUBCHEM_CONFORMER_DIVERSEORDER>
1
2
4
5
3

> <PUBCHEM_MMFF94_PARTIAL_CHARGES>
19
1 -0.53
14 -0.12
15 0.05
16 0.56
17 0.03
18 0.48
19 0.09
2 -0.57
20 -0.15
21 -0.15
22 -0.15
23 -0.15
3 -0.57
43 0.45
44 0.15
45 0.15
46 0.15
47 0.15
8 0.14

> <PUBCHEM_EFFECTIVE_ROTOR_COUNT>
3.2

> <PUBCHEM_PHARMACOPHORE_FEATURES>
7
1 1 donor
1 2 acceptor
1 3 acceptor
4 5 11 12 13 hydrophobe
6 14 15 16 17 18 19 rings
6 17 19 20 21 22 23 rings
6 4 6 7 8 9 10 rings

> <PUBCHEM_HEAVY_ATOM_COUNT>
23

> <PUBCHEM_ATOM_DEF_STEREO_COUNT>
0

> <PUBCHEM_ATOM_UDEF_STEREO_COUNT>
0

> <PUBCHEM_BOND_DEF_STEREO_COUNT>
0

> <PUBCHEM_BOND_UDEF_STEREO_COUNT>
0

> <PUBCHEM_ISOTOPIC_ATOM_COUNT>
0

> <PUBCHEM_COMPONENT_COUNT>
1

> <PUBCHEM_CACTVS_TAUTO_COUNT>
53

> <PUBCHEM_CONFORMER_ID>
00023D6D00000001

> <PUBCHEM_MMFF94_ENERGY>
67.7804

> <PUBCHEM_FEATURE_SELFOVERLAP>
35.551

> <PUBCHEM_SHAPE_FINGERPRINT>
10 15 18130494328416785576
10411042 1 18122626321977557935
10595046 47 18334297565662436996
11315181 36 18040437719476871724
11524674 6 16559030493306683111
11578080 2 13325202917682917217
11963148 33 18340481257211998543
12011746 2 18342170068785470277
12107183 9 17541088775952036666
12166972 35 17531250586140386276
12236239 1 17749108885219447806
12390115 104 18057895649587579529
12403259 415 17918267649704662936
12516196 113 18273214222307742353
12596602 18 17603589655149372818
12616971 3 17603597321924693085
12788726 201 18334008355312769169
12838862 33 18338219502570384173
12916748 109 18409449180967645346
13140716 1 18338802333821690105
13167823 11 18334574608196319250
13288520 33 18411138052503238215
13402501 40 18131632296184736274
13533116 47 18040994017264768034
13782708 43 17632573868226797734
13862211 1 18411136970192994447
14341114 176 18343302570036045488
14386348 63 17775289365162584558
15042514 8 18337675334118973891
15788980 27 18260270745718978450
16087824 20 18339358567148426021
17349148 13 17167583778295687880
17844677 252 18343587335084539400
19141452 34 17703507796178538455
19489759 90 18333449828705916793
200 152 16298102081751727925
20028762 73 17985830561354492327
20511986 3 17749377187626543764
20645477 70 14490458760941413176
21033648 29 17203033115158857169
21033650 10 18118992220840016124
21236236 1 18341895152340125081
21267235 1 18337396041275325827
21641784 216 14273739482894789878
21792961 116 17703522026211798318
2297311 6 18343590641649992941
23035841 295 18408322172590189699
23402539 116 18412541028981773007
23536379 177 18407760322443879602
23557571 272 18272942600413387116
23559900 14 18341891930592387640
3004659 81 18337111177617183690
335352 9 18410291433356456301
34797466 226 18131081471747269020
350125 39 18409449197742001653
3545911 37 18341896277758355878
4214541 1 18410573951081999520
4325135 7 18335423491413228956
474 4 17096096908540012756
5104073 3 18200028435414841306
542803 24 17894349990619463822
59755656 215 18411422769853970134
67856867 119 18115876363500314228
7495541 125 18059853982854270800

> <PUBCHEM_SHAPE_MULTIPOLES>
455.72
14.19
1.91
1.03
6.58
0.29
0
-1.5
0.18
-1.96
-0.01
1.48
0.03
0.01

> <PUBCHEM_SHAPE_SELFOVERLAP>
983.127

> <PUBCHEM_SHAPE_VOLUME>
248.5

> <PUBCHEM_COORDINATE_TYPE>
2
5
10

$$$$
