88293
  -OEChem-06112217123D

 44 44  0     1  0  0  0  0  0999 V2000
   -1.2183    3.9932    0.2680 S   0  0  0  0  0  0  0  0  0  0  0  0
    0.6581    2.1276    0.6442 O   0  0  0  0  0  0  0  0  0  0  0  0
    0.8549   -1.5143    0.9462 O   0  0  0  0  0  0  0  0  0  0  0  0
   -1.6595   -1.0711   -0.4896 O   0  0  0  0  0  0  0  0  0  0  0  0
   -2.9239    1.3736    0.3741 O   0  0  0  0  0  0  0  0  0  0  0  0
    2.9566    0.9586   -0.3747 O   0  0  0  0  0  0  0  0  0  0  0  0
    1.7840   -2.1606   -1.0679 O   0  0  0  0  0  0  0  0  0  0  0  0
   -1.7273   -2.6960    1.1513 O   0  0  0  0  0  0  0  0  0  0  0  0
   -3.4804    0.5570   -1.7140 O   0  0  0  0  0  0  0  0  0  0  0  0
    5.2101    0.8542    0.1227 O   0  0  0  0  0  0  0  0  0  0  0  0
    0.4514   -0.2739    0.3725 C   0  0  1  0  0  0  0  0  0  0  0  0
   -1.0717   -0.1531    0.4343 C   0  0  1  0  0  0  0  0  0  0  0  0
    1.1147    0.8701    1.1439 C   0  0  1  0  0  0  0  0  0  0  0  0
   -1.5369    1.2573    0.0585 C   0  0  2  0  0  0  0  0  0  0  0  0
   -0.7444    2.3177    0.8297 C   0  0  2  0  0  0  0  0  0  0  0  0
    2.6329    0.8432    0.9988 C   0  0  0  0  0  0  0  0  0  0  0  0
    1.5154   -2.3672    0.1079 C   0  0  0  0  0  0  0  0  0  0  0  0
   -1.9352   -2.3111    0.0084 C   0  0  0  0  0  0  0  0  0  0  0  0
   -3.7871    0.9859   -0.6099 C   0  0  0  0  0  0  0  0  0  0  0  0
    1.8762   -3.6222    0.8431 C   0  0  0  0  0  0  0  0  0  0  0  0
   -2.5447   -3.1606   -1.0653 C   0  0  0  0  0  0  0  0  0  0  0  0
    4.2921    0.9510   -0.6803 C   0  0  0  0  0  0  0  0  0  0  0  0
   -5.1995    1.1616   -0.1405 C   0  0  0  0  0  0  0  0  0  0  0  0
    4.4825    1.0791   -2.1614 C   0  0  0  0  0  0  0  0  0  0  0  0
    0.7258   -0.1996   -0.6880 H   0  0  0  0  0  0  0  0  0  0  0  0
   -1.4287   -0.3725    1.4504 H   0  0  0  0  0  0  0  0  0  0  0  0
    0.8803    0.7986    2.2143 H   0  0  0  0  0  0  0  0  0  0  0  0
   -1.3672    1.4054   -1.0184 H   0  0  0  0  0  0  0  0  0  0  0  0
   -0.9788    2.2771    1.9002 H   0  0  0  0  0  0  0  0  0  0  0  0
    3.0639    1.6985    1.5331 H   0  0  0  0  0  0  0  0  0  0  0  0
    3.0504   -0.0825    1.4105 H   0  0  0  0  0  0  0  0  0  0  0  0
   -0.4093    4.6638    1.1011 H   0  0  0  0  0  0  0  0  0  0  0  0
    0.9685   -4.1268    1.1829 H   0  0  0  0  0  0  0  0  0  0  0  0
    2.4177   -4.2934    0.1704 H   0  0  0  0  0  0  0  0  0  0  0  0
    2.5239   -3.3818    1.6899 H   0  0  0  0  0  0  0  0  0  0  0  0
   -3.4802   -2.7107   -1.4071 H   0  0  0  0  0  0  0  0  0  0  0  0
   -2.7619   -4.1539   -0.6623 H   0  0  0  0  0  0  0  0  0  0  0  0
   -1.8421   -3.2677   -1.8955 H   0  0  0  0  0  0  0  0  0  0  0  0
   -5.3782    0.5352    0.7371 H   0  0  0  0  0  0  0  0  0  0  0  0
   -5.8863    0.8539   -0.9341 H   0  0  0  0  0  0  0  0  0  0  0  0
   -5.3846    2.2133    0.0920 H   0  0  0  0  0  0  0  0  0  0  0  0
    4.0602    2.0255   -2.5081 H   0  0  0  0  0  0  0  0  0  0  0  0
    5.5516    1.0682   -2.3924 H   0  0  0  0  0  0  0  0  0  0  0  0
    4.0074    0.2361   -2.6692 H   0  0  0  0  0  0  0  0  0  0  0  0
  1 15  1  0  0  0  0
  1 32  1  0  0  0  0
  2 13  1  0  0  0  0
  2 15  1  0  0  0  0
  3 11  1  0  0  0  0
  3 17  1  0  0  0  0
  4 12  1  0  0  0  0
  4 18  1  0  0  0  0
  5 14  1  0  0  0  0
  5 19  1  0  0  0  0
  6 16  1  0  0  0  0
  6 22  1  0  0  0  0
  7 17  2  0  0  0  0
  8 18  2  0  0  0  0
  9 19  2  0  0  0  0
 10 22  2  0  0  0  0
 11 12  1  0  0  0  0
 11 13  1  0  0  0  0
 11 25  1  0  0  0  0
 12 14  1  0  0  0  0
 12 26  1  0  0  0  0
 13 16  1  0  0  0  0
 13 27  1  0  0  0  0
 14 15  1  0  0  0  0
 14 28  1  0  0  0  0
 15 29  1  0  0  0  0
 16 30  1  0  0  0  0
 16 31  1  0  0  0  0
 17 20  1  0  0  0  0
 18 21  1  0  0  0  0
 19 23  1  0  0  0  0
 20 33  1  0  0  0  0
 20 34  1  0  0  0  0
 20 35  1  0  0  0  0
 21 36  1  0  0  0  0
 21 37  1  0  0  0  0
 21 38  1  0  0  0  0
 22 24  1  0  0  0  0
 23 39  1  0  0  0  0
 23 40  1  0  0  0  0
 23 41  1  0  0  0  0
 24 42  1  0  0  0  0
 24 43  1  0  0  0  0
 24 44  1  0  0  0  0
M  END
> <PUBCHEM_COMPOUND_CID>
88293

> <PUBCHEM_CONFORMER_RMSD>
1

> <PUBCHEM_CONFORMER_DIVERSEORDER>
1
20
21
16
9
17
19
12
13
14
18
11
25
23
3
28
7
4
27
22
10
24
5
6
2
15
8
26

> <PUBCHEM_MMFF94_PARTIAL_CHARGES>
25
1 -0.41
10 -0.57
11 0.28
12 0.28
13 0.28
14 0.28
15 0.51
16 0.28
17 0.66
18 0.66
19 0.66
2 -0.56
20 0.06
21 0.06
22 0.66
23 0.06
24 0.06
3 -0.43
32 0.18
4 -0.43
5 -0.43
6 -0.43
7 -0.57
8 -0.57
9 -0.57

> <PUBCHEM_EFFECTIVE_ROTOR_COUNT>
10.2

> <PUBCHEM_PHARMACOPHORE_FEATURES>
6
1 10 acceptor
1 2 acceptor
1 7 acceptor
1 8 acceptor
1 9 acceptor
6 2 11 12 13 14 15 rings

> <PUBCHEM_HEAVY_ATOM_COUNT>
24

> <PUBCHEM_ATOM_DEF_STEREO_COUNT>
5

> <PUBCHEM_ATOM_UDEF_STEREO_COUNT>
0

> <PUBCHEM_BOND_DEF_STEREO_COUNT>
0

> <PUBCHEM_BOND_UDEF_STEREO_COUNT>
0

> <PUBCHEM_ISOTOPIC_ATOM_COUNT>
0

> <PUBCHEM_COMPONENT_COUNT>
1

> <PUBCHEM_CACTVS_TAUTO_COUNT>
1

> <PUBCHEM_CONFORMER_ID>
000158E500000001

> <PUBCHEM_MMFF94_ENERGY>
45.8801

> <PUBCHEM_FEATURE_SELFOVERLAP>
30.45

> <PUBCHEM_SHAPE_FINGERPRINT>
10498660 4 18338521936433708868
10756046 5 18053953848740711668
10967382 1 18340757166215651817
12553582 1 18341598322591860065
12788726 201 17774444858876462033
13140716 1 18197200645684373569
13583140 156 16950856799445666136
15475509 35 13470391301847938485
16752209 62 18192425484270687794
16945 1 18340759386392445337
17492 54 18338218424232640157
19591789 44 18194684997565801923
20600515 1 16975321809648441410
20642791 178 17834119641213884528
20739085 24 15391497196273568777
20871999 31 18194124238177810692
20905425 154 18343868801402763014
22907989 373 17756181077733492988
2334 1 17979624964069267449
23366157 5 17826239493159574314
23402539 116 18339920528399116836
23526113 38 17632580444575881016
23558518 356 17977383833122942657
23559900 14 18268706117851178082
23566358 2 18126845993389164604
25147074 1 18054792771448732489
2748010 2 18053087708139615121
350125 39 18050848814623539361
59755656 215 18338510958813928415
70251023 43 17696179684334304391

> <PUBCHEM_SHAPE_MULTIPOLES>
444.93
7.88
4.41
1.32
2.42
1.73
0.49
-3.36
3.49
-1.15
-0.58
0.74
0.01
-0.89

> <PUBCHEM_SHAPE_SELFOVERLAP>
887.367

> <PUBCHEM_SHAPE_VOLUME>
263.4

> <PUBCHEM_COORDINATE_TYPE>
2
5
10

$$$$
