49866945
  -OEChem-06112217083D

 66 70  0     1  0  0  0  0  0999 V2000
   -0.5167    2.3043   -2.6984 P   0  0  0  0  0  0  0  0  0  0  0  0
   -5.1403   -0.6013    1.0254 P   0  0  1  0  0  0  0  0  0  0  0  0
   -3.3967   -1.8694   -0.9768 P   0  0  2  0  0  0  0  0  0  0  0  0
   -1.2146    2.3112    2.2221 O   0  0  0  0  0  0  0  0  0  0  0  0
   -0.1916    2.8159   -1.1952 O   0  0  0  0  0  0  0  0  0  0  0  0
   -2.3137    4.0780    0.0199 O   0  0  0  0  0  0  0  0  0  0  0  0
   -4.3049    0.7847    1.0339 O   0  0  0  0  0  0  0  0  0  0  0  0
    0.4455   -2.9355   -1.6106 O   0  0  0  0  0  0  0  0  0  0  0  0
    1.3803   -3.7519    1.7552 O   0  0  0  0  0  0  0  0  0  0  0  0
    2.6606   -4.6408   -0.5054 O   0  0  0  0  0  0  0  0  0  0  0  0
   -2.2211   -2.9428   -0.6919 O   0  0  0  0  0  0  0  0  0  0  0  0
    2.1353   -1.3060   -1.7718 O   0  0  0  0  0  0  0  0  0  0  0  0
   -4.0941   -1.7025    0.4719 O   0  0  0  0  0  0  0  0  0  0  0  0
    0.1103    0.8142   -2.7395 O   0  0  0  0  0  0  0  0  0  0  0  0
    0.5089    3.1644   -3.6060 O   0  0  0  0  0  0  0  0  0  0  0  0
   -1.9585    2.4051   -3.1026 O   0  0  0  0  0  0  0  0  0  0  0  0
   -5.2940   -0.9889    2.5886 O   0  0  0  0  0  0  0  0  0  0  0  0
   -6.4365   -0.5495    0.2698 O   0  0  0  0  0  0  0  0  0  0  0  0
   -4.4960   -2.7093   -1.8150 O   0  0  0  0  0  0  0  0  0  0  0  0
   -2.9627   -0.5814   -1.6132 O   0  0  0  0  0  0  0  0  0  0  0  0
    1.0185    1.6137    1.5264 N   0  0  0  0  0  0  0  0  0  0  0  0
    2.2953    0.0970    2.5768 N   0  0  0  0  0  0  0  0  0  0  0  0
    2.4960    2.2668   -0.2959 N   0  0  0  0  0  0  0  0  0  0  0  0
    4.5397    1.0679   -0.1657 N   0  0  0  0  0  0  0  0  0  0  0  0
    5.1294   -0.4588    1.3600 N   0  0  0  0  0  0  0  0  0  0  0  0
   -0.8299    2.1747   -0.1091 C   0  0  2  0  0  0  0  0  0  0  0  0
   -2.2504    2.6554    0.1111 C   0  0  1  0  0  0  0  0  0  0  0  0
   -0.1784    2.4872    1.2341 C   0  0  1  0  0  0  0  0  0  0  0  0
   -2.4997    2.2659    1.5625 C   0  0  1  0  0  0  0  0  0  0  0  0
   -3.0643    0.8602    1.7149 C   0  0  0  0  0  0  0  0  0  0  0  0
    1.3165   -2.9668    0.5838 C   0  0  2  0  0  0  0  0  0  0  0  0
    0.1009   -3.3049   -0.2636 C   0  0  1  0  0  0  0  0  0  0  0  0
    2.1847    1.5491    0.8194 C   0  0  0  0  0  0  0  0  0  0  0  0
    2.4506   -3.2376   -0.3845 C   0  0  2  0  0  0  0  0  0  0  0  0
    1.1338    0.7246    2.5708 C   0  0  0  0  0  0  0  0  0  0  0  0
    1.8657   -2.6999   -1.6823 C   0  0  1  0  0  0  0  0  0  0  0  0
    2.9351    0.6100    1.4961 C   0  0  0  0  0  0  0  0  0  0  0  0
   -1.1551   -2.5666    0.1642 C   0  0  0  0  0  0  0  0  0  0  0  0
    4.1864    0.3600    0.9652 C   0  0  0  0  0  0  0  0  0  0  0  0
    3.6878    2.0068   -0.7736 C   0  0  0  0  0  0  0  0  0  0  0  0
    5.7984    0.6679   -0.5121 C   0  0  0  0  0  0  0  0  0  0  0  0
    6.1395   -0.2712    0.4408 C   0  0  0  0  0  0  0  0  0  0  0  0
   -0.8272    1.0901   -0.2749 H   0  0  0  0  0  0  0  0  0  0  0  0
   -2.9655    2.2458   -0.6062 H   0  0  0  0  0  0  0  0  0  0  0  0
    0.2037    3.5134    1.2973 H   0  0  0  0  0  0  0  0  0  0  0  0
   -3.1620    2.9837    2.0601 H   0  0  0  0  0  0  0  0  0  0  0  0
   -2.3725    0.1103    1.3205 H   0  0  0  0  0  0  0  0  0  0  0  0
   -3.2102    0.6332    2.7766 H   0  0  0  0  0  0  0  0  0  0  0  0
    1.3042   -1.9085    0.8636 H   0  0  0  0  0  0  0  0  0  0  0  0
   -0.0998   -4.3838   -0.2667 H   0  0  0  0  0  0  0  0  0  0  0  0
    3.3885   -2.7668   -0.0761 H   0  0  0  0  0  0  0  0  0  0  0  0
   -3.2333    4.3403    0.1967 H   0  0  0  0  0  0  0  0  0  0  0  0
    2.2653   -3.2043   -2.5681 H   0  0  0  0  0  0  0  0  0  0  0  0
    0.3442    0.5717    3.2937 H   0  0  0  0  0  0  0  0  0  0  0  0
   -0.9981   -1.4855    0.0871 H   0  0  0  0  0  0  0  0  0  0  0  0
   -1.4286   -2.8127    1.1947 H   0  0  0  0  0  0  0  0  0  0  0  0
    2.2299   -3.5606    2.1877 H   0  0  0  0  0  0  0  0  0  0  0  0
    3.3505   -4.7739   -1.1777 H   0  0  0  0  0  0  0  0  0  0  0  0
    4.0480    2.5280   -1.6752 H   0  0  0  0  0  0  0  0  0  0  0  0
    2.0614   -1.0601   -2.7093 H   0  0  0  0  0  0  0  0  0  0  0  0
   -0.0305    0.2612   -3.5372 H   0  0  0  0  0  0  0  0  0  0  0  0
    0.4454    3.1014   -4.5828 H   0  0  0  0  0  0  0  0  0  0  0  0
    6.3241    1.0655   -1.3689 H   0  0  0  0  0  0  0  0  0  0  0  0
    7.0652   -0.8240    0.5112 H   0  0  0  0  0  0  0  0  0  0  0  0
   -5.8821   -1.7337    2.8369 H   0  0  0  0  0  0  0  0  0  0  0  0
   -4.8417   -3.5461   -1.4375 H   0  0  0  0  0  0  0  0  0  0  0  0
  1  5  1  0  0  0  0
  1 14  1  0  0  0  0
  1 15  1  0  0  0  0
  1 16  2  0  0  0  0
  2  7  1  0  0  0  0
  2 13  1  0  0  0  0
  2 17  1  0  0  0  0
  2 18  2  0  0  0  0
  3 11  1  0  0  0  0
  3 13  1  0  0  0  0
  3 19  1  0  0  0  0
  3 20  2  0  0  0  0
  4 28  1  0  0  0  0
  4 29  1  0  0  0  0
  5 26  1  0  0  0  0
  6 27  1  0  0  0  0
  6 52  1  0  0  0  0
  7 30  1  0  0  0  0
  8 32  1  0  0  0  0
  8 36  1  0  0  0  0
  9 31  1  0  0  0  0
  9 57  1  0  0  0  0
 10 34  1  0  0  0  0
 10 58  1  0  0  0  0
 11 38  1  0  0  0  0
 12 36  1  0  0  0  0
 12 60  1  0  0  0  0
 14 61  1  0  0  0  0
 15 62  1  0  0  0  0
 17 65  1  0  0  0  0
 19 66  1  0  0  0  0
 21 28  1  0  0  0  0
 21 33  1  0  0  0  0
 21 35  1  0  0  0  0
 22 35  2  0  0  0  0
 22 37  1  0  0  0  0
 23 33  1  0  0  0  0
 23 40  2  0  0  0  0
 24 39  1  0  0  0  0
 24 40  1  0  0  0  0
 24 41  1  0  0  0  0
 25 39  2  0  0  0  0
 25 42  1  0  0  0  0
 26 27  1  0  0  0  0
 26 28  1  0  0  0  0
 26 43  1  0  0  0  0
 27 29  1  0  0  0  0
 27 44  1  0  0  0  0
 28 45  1  0  0  0  0
 29 30  1  0  0  0  0
 29 46  1  0  0  0  0
 30 47  1  0  0  0  0
 30 48  1  0  0  0  0
 31 32  1  0  0  0  0
 31 34  1  0  0  0  0
 31 49  1  0  0  0  0
 32 38  1  0  0  0  0
 32 50  1  0  0  0  0
 33 37  2  0  0  0  0
 34 36  1  0  0  0  0
 34 51  1  0  0  0  0
 35 54  1  0  0  0  0
 36 53  1  0  0  0  0
 37 39  1  0  0  0  0
 38 55  1  0  0  0  0
 38 56  1  0  0  0  0
 40 59  1  0  0  0  0
 41 42  2  0  0  0  0
 41 63  1  0  0  0  0
 42 64  1  0  0  0  0
M  END
> <PUBCHEM_COMPOUND_CID>
49866945

> <PUBCHEM_CONFORMER_RMSD>
1.6

> <PUBCHEM_CONFORMER_DIVERSEORDER>
1
121
117
98
4
124
35
128
51
116
2
79
115
106
3
125
44
40
105
5
118
88
96
92
78
67
9
101
109
52
53
131
86
91
54
68
57
73
70
112
19
61
77
103
104
41
113
123
58
95
46
60
47
26
48
63
33
129
29
66
110
8
111
11
85
27
87
64
39
90
7
59
75
13
55
45
17
18
72
81
25
36
122
126
102
100
130
82
15
114
83
12
32
50
120
56
37
24
119
74
107
99
20
38
84
108
93
49
65
16
34
71
6
30
89
62
43
22
76
42
21
80
97
69
28
14
31
10
23
94
127

> <PUBCHEM_MMFF94_PARTIAL_CHARGES>
54
1 1.51
10 -0.68
11 -0.55
12 -0.68
13 -0.54
14 -0.77
15 -0.77
16 -0.7
17 -0.77
18 -0.7
19 -0.77
2 1.51
20 -0.7
21 0.05
22 -0.57
23 -0.58
24 0.29
25 -0.57
26 0.28
27 0.28
28 0.54
29 0.28
3 1.51
30 0.28
31 0.28
32 0.28
33 -0.03
34 0.28
35 0.04
36 0.56
37 0.23
38 0.28
39 0.19
4 -0.56
40 0.4
41 -0.3
42 0.08
5 -0.55
52 0.4
54 0.15
57 0.4
58 0.4
59 0.06
6 -0.68
60 0.4
61 0.5
62 0.5
63 0.15
64 0.15
65 0.5
66 0.5
7 -0.55
8 -0.56
9 -0.68

> <PUBCHEM_EFFECTIVE_ROTOR_COUNT>
13

> <PUBCHEM_PHARMACOPHORE_FEATURES>
26
1 10 acceptor
1 10 donor
1 12 acceptor
1 12 donor
1 14 acceptor
1 15 acceptor
1 16 acceptor
1 17 acceptor
1 18 acceptor
1 19 acceptor
1 20 acceptor
1 4 acceptor
1 6 acceptor
1 6 donor
1 8 acceptor
1 9 acceptor
1 9 donor
3 21 22 35 cation
3 23 24 40 cation
3 24 25 39 cation
4 1 14 15 16 anion
5 21 22 33 35 37 rings
5 24 25 39 41 42 rings
5 4 26 27 28 29 rings
5 8 31 32 34 36 rings
6 23 24 33 37 39 40 rings

> <PUBCHEM_HEAVY_ATOM_COUNT>
42

> <PUBCHEM_ATOM_DEF_STEREO_COUNT>
8

> <PUBCHEM_ATOM_UDEF_STEREO_COUNT>
0

> <PUBCHEM_BOND_DEF_STEREO_COUNT>
0

> <PUBCHEM_BOND_UDEF_STEREO_COUNT>
0

> <PUBCHEM_ISOTOPIC_ATOM_COUNT>
0

> <PUBCHEM_COMPONENT_COUNT>
1

> <PUBCHEM_CACTVS_TAUTO_COUNT>
1

> <PUBCHEM_CONFORMER_ID>
02F8E8C100000001

> <PUBCHEM_MMFF94_ENERGY>
21.2936

> <PUBCHEM_FEATURE_SELFOVERLAP>
132.455

> <PUBCHEM_SHAPE_FINGERPRINT>
11513181 2 17845940615589652503
11578080 2 18045499707723625173
12156800 1 17980519868065962388
12166972 35 18046335607729353903
12422481 6 18409168792111427346
12788726 201 18198063775935037608
133893 2 17549513255735475668
14840074 17 18186808023107811933
15001296 14 18192428799436807577
15274700 242 17917127461353937946
15444296 8 17240756307647881719
15975801 100 17969232140388567894
16112460 7 17844538896608173345
20764821 26 18127400155602166739
3027735 51 18343858922439743219
338550 245 18341057354275206866
35225 105 18196625566995885716
392239 28 18201725071565534983
463206 1 18200878495141728891
469060 322 18186805768233852470
59755656 215 18202567267402469802

> <PUBCHEM_SHAPE_MULTIPOLES>
751.21
10.38
5.36
2.87
0.66
3.13
-1.38
2.03
3.16
0.34
-1.79
0.9
-1.73
-0.35

> <PUBCHEM_SHAPE_SELFOVERLAP>
1572.715

> <PUBCHEM_SHAPE_VOLUME>
430.6

> <PUBCHEM_COORDINATE_TYPE>
2
5
10

$$$$
