121969
  -OEChem-06112215543D

 44 44  0     1  0  0  0  0  0999 V2000
   -3.1316   -1.9808   -0.7178 P   0  0  0  0  0  0  0  0  0  0  0  0
    3.1787   -1.9278    0.7047 P   0  0  0  0  0  0  0  0  0  0  0  0
   -2.0408    2.3267    1.1207 P   0  0  0  0  0  0  0  0  0  0  0  0
    1.9807    2.3665   -1.1305 P   0  0  0  0  0  0  0  0  0  0  0  0
   -1.7995   -1.8304    0.1785 O   0  0  0  0  0  0  0  0  0  0  0  0
    1.8267   -1.8107   -0.1666 O   0  0  0  0  0  0  0  0  0  0  0  0
   -1.8338    1.0412    0.1693 O   0  0  0  0  0  0  0  0  0  0  0  0
    1.8074    1.0862   -0.1655 O   0  0  0  0  0  0  0  0  0  0  0  0
    0.4664   -0.3920   -2.2691 O   0  0  0  0  0  0  0  0  0  0  0  0
   -0.4312   -0.3625    2.3135 O   0  0  0  0  0  0  0  0  0  0  0  0
   -4.2843   -2.3395    0.3582 O   0  0  0  0  0  0  0  0  0  0  0  0
   -2.8836   -3.3857   -1.4793 O   0  0  0  0  0  0  0  0  0  0  0  0
    4.3135   -2.2930   -0.3880 O   0  0  0  0  0  0  0  0  0  0  0  0
    2.9641   -3.3207    1.4978 O   0  0  0  0  0  0  0  0  0  0  0  0
   -3.5989    2.2469    1.5463 O   0  0  0  0  0  0  0  0  0  0  0  0
   -2.0056    3.5517    0.0656 O   0  0  0  0  0  0  0  0  0  0  0  0
    3.5402    2.3228   -1.5560 O   0  0  0  0  0  0  0  0  0  0  0  0
    1.9140    3.6012   -0.0882 O   0  0  0  0  0  0  0  0  0  0  0  0
   -3.4324   -0.8172   -1.6165 O   0  0  0  0  0  0  0  0  0  0  0  0
    3.4833   -0.7435    1.5748 O   0  0  0  0  0  0  0  0  0  0  0  0
   -1.0698    2.4427    2.2591 O   0  0  0  0  0  0  0  0  0  0  0  0
    1.0067    2.4452   -2.2695 O   0  0  0  0  0  0  0  0  0  0  0  0
   -0.5545   -1.6627   -0.4941 C   0  0  2  0  0  0  0  0  0  0  0  0
    0.5933   -1.6452    0.5285 C   0  0  2  0  0  0  0  0  0  0  0  0
   -0.5868    0.9012   -0.5066 C   0  0  1  0  0  0  0  0  0  0  0  0
    0.5646    0.9210    0.5124 C   0  0  1  0  0  0  0  0  0  0  0  0
   -0.6198   -0.3858   -1.3468 C   0  0  0  0  0  0  0  0  0  0  0  0
    0.6330   -0.3556    1.3652 C   0  0  0  0  0  0  0  0  0  0  0  0
   -0.3999   -2.5228   -1.1581 H   0  0  0  0  0  0  0  0  0  0  0  0
    0.4574   -2.5025    1.1995 H   0  0  0  0  0  0  0  0  0  0  0  0
   -0.5811    1.7508   -1.1724 H   0  0  0  0  0  0  0  0  0  0  0  0
    0.5365    1.7750    1.1720 H   0  0  0  0  0  0  0  0  0  0  0  0
   -1.4761   -0.3586   -2.0023 H   0  0  0  0  0  0  0  0  0  0  0  0
    1.5068   -0.2919    1.9974 H   0  0  0  0  0  0  0  0  0  0  0  0
    0.3987    0.4106   -2.8137 H   0  0  0  0  0  0  0  0  0  0  0  0
   -0.3354   -1.1603    2.8612 H   0  0  0  0  0  0  0  0  0  0  0  0
   -5.2113   -2.4258    0.0494 H   0  0  0  0  0  0  0  0  0  0  0  0
   -3.5185   -3.6688   -2.1712 H   0  0  0  0  0  0  0  0  0  0  0  0
    5.2477   -2.3618   -0.0969 H   0  0  0  0  0  0  0  0  0  0  0  0
    3.6166   -3.5827    2.1817 H   0  0  0  0  0  0  0  0  0  0  0  0
   -3.9518    2.9066    2.1806 H   0  0  0  0  0  0  0  0  0  0  0  0
   -2.0152    4.4715    0.4060 H   0  0  0  0  0  0  0  0  0  0  0  0
    3.8757    2.9848   -2.1975 H   0  0  0  0  0  0  0  0  0  0  0  0
    1.8995    4.5173   -0.4383 H   0  0  0  0  0  0  0  0  0  0  0  0
  1  5  1  0  0  0  0
  1 11  1  0  0  0  0
  1 12  1  0  0  0  0
  1 19  2  0  0  0  0
  2  6  1  0  0  0  0
  2 13  1  0  0  0  0
  2 14  1  0  0  0  0
  2 20  2  0  0  0  0
  3  7  1  0  0  0  0
  3 15  1  0  0  0  0
  3 16  1  0  0  0  0
  3 21  2  0  0  0  0
  4  8  1  0  0  0  0
  4 17  1  0  0  0  0
  4 18  1  0  0  0  0
  4 22  2  0  0  0  0
  5 23  1  0  0  0  0
  6 24  1  0  0  0  0
  7 25  1  0  0  0  0
  8 26  1  0  0  0  0
  9 27  1  0  0  0  0
  9 35  1  0  0  0  0
 10 28  1  0  0  0  0
 10 36  1  0  0  0  0
 11 37  1  0  0  0  0
 12 38  1  0  0  0  0
 13 39  1  0  0  0  0
 14 40  1  0  0  0  0
 15 41  1  0  0  0  0
 16 42  1  0  0  0  0
 17 43  1  0  0  0  0
 18 44  1  0  0  0  0
 23 24  1  0  0  0  0
 23 27  1  0  0  0  0
 23 29  1  0  0  0  0
 24 28  1  0  0  0  0
 24 30  1  0  0  0  0
 25 26  1  0  0  0  0
 25 27  1  0  0  0  0
 25 31  1  0  0  0  0
 26 28  1  0  0  0  0
 26 32  1  0  0  0  0
 27 33  1  0  0  0  0
 28 34  1  0  0  0  0
M  END
> <PUBCHEM_COMPOUND_CID>
121969

> <PUBCHEM_CONFORMER_RMSD>
1

> <PUBCHEM_CONFORMER_DIVERSEORDER>
1
2
3
4

> <PUBCHEM_MMFF94_PARTIAL_CHARGES>
38
1 1.51
10 -0.68
11 -0.77
12 -0.77
13 -0.77
14 -0.77
15 -0.77
16 -0.77
17 -0.77
18 -0.77
19 -0.7
2 1.51
20 -0.7
21 -0.7
22 -0.7
23 0.28
24 0.28
25 0.28
26 0.28
27 0.28
28 0.28
3 1.51
35 0.4
36 0.4
37 0.5
38 0.5
39 0.5
4 1.51
40 0.5
41 0.5
42 0.5
43 0.5
44 0.5
5 -0.55
6 -0.55
7 -0.55
8 -0.55
9 -0.68

> <PUBCHEM_EFFECTIVE_ROTOR_COUNT>
9.2

> <PUBCHEM_PHARMACOPHORE_FEATURES>
21
1 10 acceptor
1 10 donor
1 11 acceptor
1 12 acceptor
1 13 acceptor
1 14 acceptor
1 15 acceptor
1 16 acceptor
1 17 acceptor
1 18 acceptor
1 19 acceptor
1 20 acceptor
1 21 acceptor
1 22 acceptor
1 9 acceptor
1 9 donor
4 1 11 12 19 anion
4 2 13 14 20 anion
4 3 15 16 21 anion
4 4 17 18 22 anion
6 23 24 25 26 27 28 rings

> <PUBCHEM_HEAVY_ATOM_COUNT>
28

> <PUBCHEM_ATOM_DEF_STEREO_COUNT>
4

> <PUBCHEM_ATOM_UDEF_STEREO_COUNT>
0

> <PUBCHEM_BOND_DEF_STEREO_COUNT>
0

> <PUBCHEM_BOND_UDEF_STEREO_COUNT>
0

> <PUBCHEM_ISOTOPIC_ATOM_COUNT>
0

> <PUBCHEM_COMPONENT_COUNT>
1

> <PUBCHEM_CACTVS_TAUTO_COUNT>
1

> <PUBCHEM_CONFORMER_ID>
0001DC7100000001

> <PUBCHEM_MMFF94_ENERGY>
-42.1378

> <PUBCHEM_FEATURE_SELFOVERLAP>
106.748

> <PUBCHEM_SHAPE_FINGERPRINT>
1100329 8 18338235951693572289
12035759 4 18338243785434235076
12403814 3 17760637071684859074
12592029 89 17243570081840220172
12788726 201 18200042848755224347
13009979 54 18413385427799359018
133893 2 17604157012140225044
14943834 7 18410864260516190277
14955137 171 17976846210385625538
16945 1 18266175221860000292
20600515 1 17471233666892364227
21033648 29 17695893441695897904
21041028 32 18411703222886777627
21330990 113 17332536665759272078
21421861 104 18267604527179194787
229495 10 15370672059538248680
23419403 2 17692477460873136104
23526113 38 17333940144938624428
23558518 356 18123212326408004764
23598288 3 18202561787382792471
23598291 2 18409455765073453910
6992083 37 18194681454017420056
81228 2 18193542389978293115
9925002 15 18340769243226182356

> <PUBCHEM_SHAPE_MULTIPOLES>
485.98
5.9
4.59
2.02
0.1
1.37
0.01
-3.32
0.05
-0.06
-0.07
0
0.57
-3.01

> <PUBCHEM_SHAPE_SELFOVERLAP>
937.905

> <PUBCHEM_SHAPE_VOLUME>
296

> <PUBCHEM_COORDINATE_TYPE>
2
5
10

$$$$
