25134172
  -OEChem-06112217073D

 29 29  0     1  0  0  0  0  0999 V2000
    3.0347   -0.0539   -0.0036 P   0  0  0  0  0  0  0  0  0  0  0  0
   -0.1434   -0.8334    0.4575 O   0  0  0  0  0  0  0  0  0  0  0  0
   -2.7153    2.3666    0.3475 O   0  0  0  0  0  0  0  0  0  0  0  0
    1.7089    0.5688    0.6745 O   0  0  0  0  0  0  0  0  0  0  0  0
   -3.6089   -0.2283   -0.5607 O   0  0  0  0  0  0  0  0  0  0  0  0
    0.1455    2.7398   -0.2491 O   0  0  0  0  0  0  0  0  0  0  0  0
   -0.8940   -3.4310   -0.0870 O   0  0  0  0  0  0  0  0  0  0  0  0
    3.0051    0.5250   -1.5133 O   0  0  0  0  0  0  0  0  0  0  0  0
    2.6358   -1.6094   -0.1939 O   0  0  0  0  0  0  0  0  0  0  0  0
    4.3097    0.1857    0.7507 O   0  0  0  0  0  0  0  0  0  0  0  0
   -1.8474    1.3796   -0.2118 C   0  0  2  0  0  0  0  0  0  0  0  0
   -2.3986    0.0018    0.1561 C   0  0  2  0  0  0  0  0  0  0  0  0
   -0.4341    1.5747    0.3375 C   0  0  1  0  0  0  0  0  0  0  0  0
   -1.3899   -1.0962   -0.1890 C   0  0  2  0  0  0  0  0  0  0  0  0
    0.4598    0.3787    0.0105 C   0  0  2  0  0  0  0  0  0  0  0  0
   -1.8679   -2.4686    0.2741 C   0  0  0  0  0  0  0  0  0  0  0  0
   -1.8705    1.5327   -1.2971 H   0  0  0  0  0  0  0  0  0  0  0  0
   -2.6417   -0.0246    1.2253 H   0  0  0  0  0  0  0  0  0  0  0  0
   -0.4632    1.7469    1.4200 H   0  0  0  0  0  0  0  0  0  0  0  0
   -1.2169   -1.1457   -1.2728 H   0  0  0  0  0  0  0  0  0  0  0  0
    0.6285    0.3195   -1.0712 H   0  0  0  0  0  0  0  0  0  0  0  0
   -2.8193   -2.7413   -0.1925 H   0  0  0  0  0  0  0  0  0  0  0  0
   -1.9773   -2.4968    1.3634 H   0  0  0  0  0  0  0  0  0  0  0  0
   -2.7030    2.2672    1.3148 H   0  0  0  0  0  0  0  0  0  0  0  0
   -3.4015   -0.2204   -1.5108 H   0  0  0  0  0  0  0  0  0  0  0  0
    0.1838    2.6056   -1.2115 H   0  0  0  0  0  0  0  0  0  0  0  0
   -1.2166   -4.2953    0.2205 H   0  0  0  0  0  0  0  0  0  0  0  0
    3.7553    0.3253   -2.1129 H   0  0  0  0  0  0  0  0  0  0  0  0
    3.3177   -2.2389   -0.5111 H   0  0  0  0  0  0  0  0  0  0  0  0
  1  4  1  0  0  0  0
  1  8  1  0  0  0  0
  1  9  1  0  0  0  0
  1 10  2  0  0  0  0
  2 14  1  0  0  0  0
  2 15  1  0  0  0  0
  3 11  1  0  0  0  0
  3 24  1  0  0  0  0
  4 15  1  0  0  0  0
  5 12  1  0  0  0  0
  5 25  1  0  0  0  0
  6 13  1  0  0  0  0
  6 26  1  0  0  0  0
  7 16  1  0  0  0  0
  7 27  1  0  0  0  0
  8 28  1  0  0  0  0
  9 29  1  0  0  0  0
 11 12  1  0  0  0  0
 11 13  1  0  0  0  0
 11 17  1  0  0  0  0
 12 14  1  0  0  0  0
 12 18  1  0  0  0  0
 13 15  1  0  0  0  0
 13 19  1  0  0  0  0
 14 16  1  0  0  0  0
 14 20  1  0  0  0  0
 15 21  1  0  0  0  0
 16 22  1  0  0  0  0
 16 23  1  0  0  0  0
M  END
> <PUBCHEM_COMPOUND_CID>
25134172

> <PUBCHEM_CONFORMER_RMSD>
0.6

> <PUBCHEM_CONFORMER_DIVERSEORDER>
1
6
13
5
14
12
9
17
3
8
7
4
11
16
2
10
15
18

> <PUBCHEM_MMFF94_PARTIAL_CHARGES>
22
1 1.51
10 -0.7
11 0.28
12 0.28
13 0.28
14 0.28
15 0.56
16 0.28
2 -0.56
24 0.4
25 0.4
26 0.4
27 0.4
28 0.5
29 0.5
3 -0.68
4 -0.55
5 -0.68
6 -0.68
7 -0.68
8 -0.77
9 -0.77

> <PUBCHEM_EFFECTIVE_ROTOR_COUNT>
4.2

> <PUBCHEM_PHARMACOPHORE_FEATURES>
14
1 10 acceptor
1 2 acceptor
1 3 acceptor
1 3 donor
1 5 acceptor
1 5 donor
1 6 acceptor
1 6 donor
1 7 acceptor
1 7 donor
1 8 acceptor
1 9 acceptor
4 1 8 9 10 anion
6 2 11 12 13 14 15 rings

> <PUBCHEM_HEAVY_ATOM_COUNT>
16

> <PUBCHEM_ATOM_DEF_STEREO_COUNT>
5

> <PUBCHEM_ATOM_UDEF_STEREO_COUNT>
0

> <PUBCHEM_BOND_DEF_STEREO_COUNT>
0

> <PUBCHEM_BOND_UDEF_STEREO_COUNT>
0

> <PUBCHEM_ISOTOPIC_ATOM_COUNT>
0

> <PUBCHEM_COMPONENT_COUNT>
1

> <PUBCHEM_CACTVS_TAUTO_COUNT>
1

> <PUBCHEM_CONFORMER_ID>
017F845C00000001

> <PUBCHEM_MMFF94_ENERGY>
3.7921

> <PUBCHEM_FEATURE_SELFOVERLAP>
71.102

> <PUBCHEM_SHAPE_FINGERPRINT>
10967382 1 18410572872797353419
11680986 33 18052246581928865657
12173636 292 18266739082420828965
12500047 106 18411694349346700168
12553582 1 18050014586062039762
12716758 59 18412545379493402274
13140716 1 18122909995259443779
14115302 16 18260266390685398694
14911166 2 18336532902776760653
15669948 3 18335704978942336990
16945 1 18338802315903342337
193761 8 17977946014287578729
20510252 161 18272650099976170033
20645476 183 18187944845089874526
20645477 70 16968283298595797847
20711985 365 18265330805841764183
20871998 184 18272653488636710047
22213442 358 18194682794295103608
2334 1 17689998264095111283
23402539 116 18342160177270079127
23526114 1 16536796933525794247
23552423 10 17901951073236740717
23557571 272 18273501182675322436
23559900 14 18271242713141092090
2748010 2 18266182734116399719
43471831 8 18264487274312413211
6333449 129 18412257311826450688
7364860 26 17836366321226112153
81228 2 18338231669352553251
8809292 202 18337950202997717842
9709674 26 18271807900192550974

> <PUBCHEM_SHAPE_MULTIPOLES>
280.3
5.55
2.95
0.8
4.31
1.12
0.14
0.06
0.18
-2.08
-0.05
0.43
-0.08
-0.08

> <PUBCHEM_SHAPE_SELFOVERLAP>
547.107

> <PUBCHEM_SHAPE_VOLUME>
169.2

> <PUBCHEM_COORDINATE_TYPE>
2
5
10

$$$$
