11495704
  -OEChem-06112215543D

 62 65  0     1  0  0  0  0  0999 V2000
    5.7360   -1.9227   -2.4602 F   0  0  0  0  0  0  0  0  0  0  0  0
    1.9520    0.9796   -1.4212 O   0  0  0  0  0  0  0  0  0  0  0  0
    4.3171    1.3204    1.1106 O   0  0  0  0  0  0  0  0  0  0  0  0
    4.9423   -0.6631    0.1039 N   0  0  0  0  0  0  0  0  0  0  0  0
    2.7198   -1.1018    2.1988 N   0  0  0  0  0  0  0  0  0  0  0  0
   -4.9725   -0.2532   -0.5859 N   0  0  0  0  0  0  0  0  0  0  0  0
    1.3264    2.9170   -0.3196 N   0  0  0  0  0  0  0  0  0  0  0  0
   -4.8257    0.4675   -1.7295 N   0  0  0  0  0  0  0  0  0  0  0  0
   -6.9780   -0.2754   -1.5541 N   0  0  0  0  0  0  0  0  0  0  0  0
    0.1964    0.2439    1.1358 C   0  0  0  0  0  0  0  0  0  0  0  0
   -0.7991    1.4068    1.2381 C   0  0  0  0  0  0  0  0  0  0  0  0
   -0.1868   -0.7027   -0.0090 C   0  0  0  0  0  0  0  0  0  0  0  0
    1.6195    0.7674    0.9495 C   0  0  1  0  0  0  0  0  0  0  0  0
   -2.6180   -0.0377    0.2301 C   0  0  0  0  0  0  0  0  0  0  0  0
   -2.2371    0.9083    1.3759 C   0  0  0  0  0  0  0  0  0  0  0  0
   -1.6250   -1.2013    0.1268 C   0  0  0  0  0  0  0  0  0  0  0  0
    2.6579   -0.3789    0.9315 C   0  0  1  0  0  0  0  0  0  0  0  0
   -4.0138   -0.5529    0.4006 C   0  0  0  0  0  0  0  0  0  0  0  0
    1.6577    1.5585   -0.3697 C   0  0  0  0  0  0  0  0  0  0  0  0
    4.0435    0.1806    0.7313 C   0  0  0  0  0  0  0  0  0  0  0  0
    4.6790   -2.0194   -0.3731 C   0  0  0  0  0  0  0  0  0  0  0  0
    6.3169   -0.2688   -0.1679 C   0  0  0  0  0  0  0  0  0  0  0  0
    5.9115   -2.3746   -1.1880 C   0  0  2  0  0  0  0  0  0  0  0  0
    7.0209   -1.5679   -0.5325 C   0  0  0  0  0  0  0  0  0  0  0  0
   -4.3945   -1.2932    1.4606 C   0  0  0  0  0  0  0  0  0  0  0  0
   -6.3006   -0.6935   -0.5084 C   0  0  0  0  0  0  0  0  0  0  0  0
   -5.7652   -1.7606    1.5630 C   0  0  0  0  0  0  0  0  0  0  0  0
    0.7824    3.5615   -1.5095 C   0  0  0  0  0  0  0  0  0  0  0  0
    1.5613    3.8110    0.8120 C   0  0  0  0  0  0  0  0  0  0  0  0
   -6.6783   -1.4730    0.6191 C   0  0  0  0  0  0  0  0  0  0  0  0
   -6.0461    0.4185   -2.2593 C   0  0  0  0  0  0  0  0  0  0  0  0
    0.1317   -0.3132    2.0791 H   0  0  0  0  0  0  0  0  0  0  0  0
   -0.7964    2.0321    0.3440 H   0  0  0  0  0  0  0  0  0  0  0  0
   -0.5551    2.0426    2.0966 H   0  0  0  0  0  0  0  0  0  0  0  0
    0.4536   -1.5891   -0.0319 H   0  0  0  0  0  0  0  0  0  0  0  0
   -0.1077   -0.2165   -0.9862 H   0  0  0  0  0  0  0  0  0  0  0  0
    1.8504    1.4213    1.7946 H   0  0  0  0  0  0  0  0  0  0  0  0
   -2.5356    0.5377   -0.7011 H   0  0  0  0  0  0  0  0  0  0  0  0
   -2.3369    0.4099    2.3486 H   0  0  0  0  0  0  0  0  0  0  0  0
   -2.9164    1.7700    1.3940 H   0  0  0  0  0  0  0  0  0  0  0  0
   -1.8703   -1.8301   -0.7385 H   0  0  0  0  0  0  0  0  0  0  0  0
   -1.6820   -1.8486    1.0114 H   0  0  0  0  0  0  0  0  0  0  0  0
    2.4215   -1.0720    0.1274 H   0  0  0  0  0  0  0  0  0  0  0  0
    3.7795   -2.0551   -0.9911 H   0  0  0  0  0  0  0  0  0  0  0  0
    4.5754   -2.6741    0.4967 H   0  0  0  0  0  0  0  0  0  0  0  0
    6.3011    0.4312   -1.0107 H   0  0  0  0  0  0  0  0  0  0  0  0
    6.7589    0.2318    0.6986 H   0  0  0  0  0  0  0  0  0  0  0  0
    3.4176   -1.8422    2.1501 H   0  0  0  0  0  0  0  0  0  0  0  0
    1.8336   -1.5720    2.3748 H   0  0  0  0  0  0  0  0  0  0  0  0
    6.1106   -3.4479   -1.2332 H   0  0  0  0  0  0  0  0  0  0  0  0
    7.8746   -1.3952   -1.1931 H   0  0  0  0  0  0  0  0  0  0  0  0
    7.3658   -2.0741    0.3765 H   0  0  0  0  0  0  0  0  0  0  0  0
   -3.7154   -1.5649    2.2607 H   0  0  0  0  0  0  0  0  0  0  0  0
   -6.0327   -2.3536    2.4309 H   0  0  0  0  0  0  0  0  0  0  0  0
   -0.1131    4.1250   -1.2321 H   0  0  0  0  0  0  0  0  0  0  0  0
    1.5363    4.2408   -1.9175 H   0  0  0  0  0  0  0  0  0  0  0  0
    0.5159    2.8227   -2.2704 H   0  0  0  0  0  0  0  0  0  0  0  0
    2.2290    3.3682    1.5510 H   0  0  0  0  0  0  0  0  0  0  0  0
    2.0319    4.7289    0.4457 H   0  0  0  0  0  0  0  0  0  0  0  0
    0.6021    4.0595    1.2729 H   0  0  0  0  0  0  0  0  0  0  0  0
   -7.6994   -1.8272    0.7054 H   0  0  0  0  0  0  0  0  0  0  0  0
   -6.2622    0.9093   -3.1965 H   0  0  0  0  0  0  0  0  0  0  0  0
  1 23  1  0  0  0  0
  2 19  2  0  0  0  0
  3 20  2  0  0  0  0
  4 20  1  0  0  0  0
  4 21  1  0  0  0  0
  4 22  1  0  0  0  0
  5 17  1  0  0  0  0
  5 48  1  0  0  0  0
  5 49  1  0  0  0  0
  6  8  1  0  0  0  0
  6 18  1  0  0  0  0
  6 26  1  0  0  0  0
  7 19  1  0  0  0  0
  7 28  1  0  0  0  0
  7 29  1  0  0  0  0
  8 31  2  0  0  0  0
  9 26  2  0  0  0  0
  9 31  1  0  0  0  0
 10 11  1  0  0  0  0
 10 12  1  0  0  0  0
 10 13  1  0  0  0  0
 10 32  1  0  0  0  0
 11 15  1  0  0  0  0
 11 33  1  0  0  0  0
 11 34  1  0  0  0  0
 12 16  1  0  0  0  0
 12 35  1  0  0  0  0
 12 36  1  0  0  0  0
 13 17  1  0  0  0  0
 13 19  1  0  0  0  0
 13 37  1  0  0  0  0
 14 15  1  0  0  0  0
 14 16  1  0  0  0  0
 14 18  1  0  0  0  0
 14 38  1  0  0  0  0
 15 39  1  0  0  0  0
 15 40  1  0  0  0  0
 16 41  1  0  0  0  0
 16 42  1  0  0  0  0
 17 20  1  0  0  0  0
 17 43  1  0  0  0  0
 18 25  2  0  0  0  0
 21 23  1  0  0  0  0
 21 44  1  0  0  0  0
 21 45  1  0  0  0  0
 22 24  1  0  0  0  0
 22 46  1  0  0  0  0
 22 47  1  0  0  0  0
 23 24  1  0  0  0  0
 23 50  1  0  0  0  0
 24 51  1  0  0  0  0
 24 52  1  0  0  0  0
 25 27  1  0  0  0  0
 25 53  1  0  0  0  0
 26 30  1  0  0  0  0
 27 30  2  0  0  0  0
 27 54  1  0  0  0  0
 28 55  1  0  0  0  0
 28 56  1  0  0  0  0
 28 57  1  0  0  0  0
 29 58  1  0  0  0  0
 29 59  1  0  0  0  0
 29 60  1  0  0  0  0
 30 61  1  0  0  0  0
 31 62  1  0  0  0  0
M  END
> <PUBCHEM_COMPOUND_CID>
11495704

> <PUBCHEM_CONFORMER_RMSD>
1

> <PUBCHEM_CONFORMER_DIVERSEORDER>
1
32
35
31
25
24
5
15
30
18
36
10
26
16
7
28
11
13
14
12
33
34
8
19
17
27
9
29
6
21
23
2
22
20
3
4

> <PUBCHEM_MMFF94_PARTIAL_CHARGES>
31
1 -0.34
13 0.06
14 0.14
17 0.33
18 -0.17
19 0.57
2 -0.57
20 0.57
21 0.3
22 0.3
23 0.34
25 -0.15
26 0.14
27 -0.15
28 0.3
29 0.3
3 -0.57
30 -0.11
31 0.37
4 -0.66
48 0.36
49 0.36
5 -0.99
53 0.15
54 0.15
6 0.6
61 0.15
62 0.15
7 -0.66
8 -0.71
9 -0.57

> <PUBCHEM_EFFECTIVE_ROTOR_COUNT>
9.2

> <PUBCHEM_PHARMACOPHORE_FEATURES>
10
1 2 acceptor
1 3 acceptor
1 5 cation
1 5 donor
3 6 9 26 cation
3 8 9 31 cation
5 4 21 22 23 24 rings
5 6 8 9 26 31 rings
6 10 11 12 14 15 16 rings
6 6 18 25 26 27 30 rings

> <PUBCHEM_HEAVY_ATOM_COUNT>
31

> <PUBCHEM_ATOM_DEF_STEREO_COUNT>
3

> <PUBCHEM_ATOM_UDEF_STEREO_COUNT>
0

> <PUBCHEM_BOND_DEF_STEREO_COUNT>
0

> <PUBCHEM_BOND_UDEF_STEREO_COUNT>
0

> <PUBCHEM_ISOTOPIC_ATOM_COUNT>
0

> <PUBCHEM_COMPONENT_COUNT>
1

> <PUBCHEM_CACTVS_TAUTO_COUNT>
1

> <PUBCHEM_CONFORMER_ID>
00AF691800000001

> <PUBCHEM_MMFF94_ENERGY>
78.8621

> <PUBCHEM_FEATURE_SELFOVERLAP>
53.575

> <PUBCHEM_SHAPE_FINGERPRINT>
10319926 262 13183021830489387771
10906281 52 14346082975202944491
11386260 185 18189037842054668589
12166972 35 18131349726192091985
12373685 5 13182742482144091309
12616971 3 17917716859552534873
12623949 98 17631748062807744486
12633257 1 15339117948685021818
12760667 363 17775005669978172843
13533116 47 17846497058619556208
13668630 136 18413106186928549643
13685833 64 18202287991908158386
13782708 43 17417812794918949918
14068700 675 17846213341253601400
14251764 18 16343699950390650810
14955137 171 18340214071616595138
15183329 4 17385720279544417093
15198563 99 18263928739765247220
15419008 47 18113615686305576917
15475509 35 16558460899745949858
15849732 13 18411980286662601766
16994733 274 14273454777711541670
17349148 13 17775006812544637249
1813 80 18334021575506870696
18222031 100 18411975849992877760
21033650 10 16732982003813983173
21365058 113 18187936091883715749
21682296 61 18272939297504531987
21792961 116 17676771976948250386
22224240 67 10087633806256940341
22393880 68 17822003259683908507
23081809 10 16702020911215306595
23522609 53 15140961691126429271
23559900 14 18335416911312081883
23569943 247 17489028132922836935
23576562 1 18115302423110288831
24771750 20 17611481013807544964
249057 3 18113334228814287119
340366 18 18337953505632545735
4339292 15 18270122289502889974
437815 12 18409446972911720517
46194498 28 17968095369476816036
465052 167 15913324689656836578
5081480 168 17604137224830351709
5265222 85 17241341290219737195
54076057 255 15285354012077998333
59755656 215 18260824873836421811
6328613 192 14490194903525210255

> <PUBCHEM_SHAPE_MULTIPOLES>
589.07
18.71
2.95
1.87
6.32
3
0.54
-13.86
7.07
-3.27
0.41
0.92
-0.06
2.57

> <PUBCHEM_SHAPE_SELFOVERLAP>
1253.226

> <PUBCHEM_SHAPE_VOLUME>
331.6

> <PUBCHEM_COORDINATE_TYPE>
2
5
10

$$$$
