45266801
  -OEChem-06112217073D

 65 66  0     1  0  0  0  0  0999 V2000
    3.3093   -2.3501   -0.4021 S   0  0  0  0  0  0  0  0  0  0  0  0
    5.6385    1.7362   -1.3407 O   0  0  0  0  0  0  0  0  0  0  0  0
    6.0624    1.1993    0.8337 O   0  0  0  0  0  0  0  0  0  0  0  0
    0.0661   -0.0871    2.4271 O   0  0  0  0  0  0  0  0  0  0  0  0
   -0.9974   -0.8625   -1.3391 O   0  0  0  0  0  0  0  0  0  0  0  0
   -3.2739    0.9712   -0.5120 O   0  0  0  0  0  0  0  0  0  0  0  0
   -3.0013    2.2314   -2.3775 O   0  0  0  0  0  0  0  0  0  0  0  0
    3.6198   -0.0479    0.9211 N   0  0  0  0  0  0  0  0  0  0  0  0
    0.3646   -1.7960    0.2937 N   0  0  0  0  0  0  0  0  0  0  0  0
    0.9590    1.6093    1.1174 N   0  0  0  0  0  0  0  0  0  0  0  0
   -4.7079    3.9797   -0.7050 N   0  0  0  0  0  0  0  0  0  0  0  0
    4.7789   -1.3328   -0.7933 C   0  0  0  0  0  0  0  0  0  0  0  0
    4.3008    0.0687   -0.3714 C   0  0  2  0  0  0  0  0  0  0  0  0
    2.6695   -1.1613    0.8238 C   0  0  1  0  0  0  0  0  0  0  0  0
    1.2769   -0.6896    0.4158 C   0  0  2  0  0  0  0  0  0  0  0  0
    5.9611   -1.8783    0.0202 C   0  0  0  0  0  0  0  0  0  0  0  0
    5.0808   -1.4059   -2.2901 C   0  0  0  0  0  0  0  0  0  0  0  0
    5.4235    1.0426   -0.1962 C   0  0  0  0  0  0  0  0  0  0  0  0
    0.7072    0.2788    1.4441 C   0  0  0  0  0  0  0  0  0  0  0  0
    0.4883    2.7105    1.9076 C   0  0  0  0  0  0  0  0  0  0  0  0
   -0.7120   -1.7901   -0.5862 C   0  0  0  0  0  0  0  0  0  0  0  0
   -0.8898    3.2070    1.4797 C   0  0  0  0  0  0  0  0  0  0  0  0
   -0.9654    3.7472    0.0459 C   0  0  0  0  0  0  0  0  0  0  0  0
   -1.5024   -3.0823   -0.5132 C   0  0  0  0  0  0  0  0  0  0  0  0
   -2.3205    4.3579   -0.3252 C   0  0  0  0  0  0  0  0  0  0  0  0
   -3.4674    3.3408   -0.2577 C   0  0  2  0  0  0  0  0  0  0  0  0
   -2.9422   -2.8797   -0.1212 C   0  0  0  0  0  0  0  0  0  0  0  0
   -3.2144    2.1561   -1.1738 C   0  0  0  0  0  0  0  0  0  0  0  0
   -3.3083   -2.9039    1.2245 C   0  0  0  0  0  0  0  0  0  0  0  0
   -3.9095   -2.6680   -1.1035 C   0  0  0  0  0  0  0  0  0  0  0  0
   -4.6420   -2.7162    1.5880 C   0  0  0  0  0  0  0  0  0  0  0  0
   -5.2430   -2.4804   -0.7402 C   0  0  0  0  0  0  0  0  0  0  0  0
   -5.6093   -2.5046    0.6056 C   0  0  0  0  0  0  0  0  0  0  0  0
    3.5925    0.4963   -1.0950 H   0  0  0  0  0  0  0  0  0  0  0  0
    2.6193   -1.6683    1.7949 H   0  0  0  0  0  0  0  0  0  0  0  0
    4.3086   -0.2817    1.6368 H   0  0  0  0  0  0  0  0  0  0  0  0
    1.3093   -0.1798   -0.5568 H   0  0  0  0  0  0  0  0  0  0  0  0
    6.8725   -1.3034   -0.1798 H   0  0  0  0  0  0  0  0  0  0  0  0
    5.7868   -1.8491    1.1013 H   0  0  0  0  0  0  0  0  0  0  0  0
    6.1820   -2.9184   -0.2496 H   0  0  0  0  0  0  0  0  0  0  0  0
    5.3034   -2.4317   -2.6064 H   0  0  0  0  0  0  0  0  0  0  0  0
    4.2410   -1.0433   -2.8942 H   0  0  0  0  0  0  0  0  0  0  0  0
    5.9531   -0.7930   -2.5428 H   0  0  0  0  0  0  0  0  0  0  0  0
    0.4819   -2.5771    0.9324 H   0  0  0  0  0  0  0  0  0  0  0  0
    1.4982    1.8232    0.2834 H   0  0  0  0  0  0  0  0  0  0  0  0
    0.4572    2.4073    2.9599 H   0  0  0  0  0  0  0  0  0  0  0  0
    1.2251    3.5155    1.8148 H   0  0  0  0  0  0  0  0  0  0  0  0
   -1.2011    3.9982    2.1727 H   0  0  0  0  0  0  0  0  0  0  0  0
   -1.6032    2.3834    1.5982 H   0  0  0  0  0  0  0  0  0  0  0  0
    6.3720    2.3806   -1.2463 H   0  0  0  0  0  0  0  0  0  0  0  0
   -0.7020    2.9552   -0.6646 H   0  0  0  0  0  0  0  0  0  0  0  0
   -0.2016    4.5264   -0.0725 H   0  0  0  0  0  0  0  0  0  0  0  0
   -1.0364   -3.7992    0.1738 H   0  0  0  0  0  0  0  0  0  0  0  0
   -1.4458   -3.5544   -1.5025 H   0  0  0  0  0  0  0  0  0  0  0  0
   -2.2402    4.7694   -1.3402 H   0  0  0  0  0  0  0  0  0  0  0  0
   -2.5320    5.2028    0.3426 H   0  0  0  0  0  0  0  0  0  0  0  0
   -3.6109    2.9913    0.7699 H   0  0  0  0  0  0  0  0  0  0  0  0
   -4.9081    4.7865   -0.1149 H   0  0  0  0  0  0  0  0  0  0  0  0
   -5.4879    3.3356   -0.5779 H   0  0  0  0  0  0  0  0  0  0  0  0
   -2.5629   -3.0654    1.9987 H   0  0  0  0  0  0  0  0  0  0  0  0
   -3.6364   -2.6442   -2.1551 H   0  0  0  0  0  0  0  0  0  0  0  0
   -4.9271   -2.7341    2.6359 H   0  0  0  0  0  0  0  0  0  0  0  0
   -5.9961   -2.3143   -1.5049 H   0  0  0  0  0  0  0  0  0  0  0  0
   -6.6476   -2.3579    0.8885 H   0  0  0  0  0  0  0  0  0  0  0  0
   -3.1168    0.2112   -1.1117 H   0  0  0  0  0  0  0  0  0  0  0  0
  1 12  1  0  0  0  0
  1 14  1  0  0  0  0
  2 18  1  0  0  0  0
  2 50  1  0  0  0  0
  3 18  2  0  0  0  0
  4 19  2  0  0  0  0
  5 21  2  0  0  0  0
  6 28  1  0  0  0  0
  6 65  1  0  0  0  0
  7 28  2  0  0  0  0
  8 13  1  0  0  0  0
  8 14  1  0  0  0  0
  8 36  1  0  0  0  0
  9 15  1  0  0  0  0
  9 21  1  0  0  0  0
  9 44  1  0  0  0  0
 10 19  1  0  0  0  0
 10 20  1  0  0  0  0
 10 45  1  0  0  0  0
 11 26  1  0  0  0  0
 11 58  1  0  0  0  0
 11 59  1  0  0  0  0
 12 13  1  0  0  0  0
 12 16  1  0  0  0  0
 12 17  1  0  0  0  0
 13 18  1  0  0  0  0
 13 34  1  0  0  0  0
 14 15  1  0  0  0  0
 14 35  1  0  0  0  0
 15 19  1  0  0  0  0
 15 37  1  0  0  0  0
 16 38  1  0  0  0  0
 16 39  1  0  0  0  0
 16 40  1  0  0  0  0
 17 41  1  0  0  0  0
 17 42  1  0  0  0  0
 17 43  1  0  0  0  0
 20 22  1  0  0  0  0
 20 46  1  0  0  0  0
 20 47  1  0  0  0  0
 21 24  1  0  0  0  0
 22 23  1  0  0  0  0
 22 48  1  0  0  0  0
 22 49  1  0  0  0  0
 23 25  1  0  0  0  0
 23 51  1  0  0  0  0
 23 52  1  0  0  0  0
 24 27  1  0  0  0  0
 24 53  1  0  0  0  0
 24 54  1  0  0  0  0
 25 26  1  0  0  0  0
 25 55  1  0  0  0  0
 25 56  1  0  0  0  0
 26 28  1  0  0  0  0
 26 57  1  0  0  0  0
 27 29  2  0  0  0  0
 27 30  1  0  0  0  0
 29 31  1  0  0  0  0
 29 60  1  0  0  0  0
 30 32  2  0  0  0  0
 30 61  1  0  0  0  0
 31 33  2  0  0  0  0
 31 62  1  0  0  0  0
 32 33  1  0  0  0  0
 32 63  1  0  0  0  0
 33 64  1  0  0  0  0
M  END
> <PUBCHEM_COMPOUND_CID>
45266801

> <PUBCHEM_CONFORMER_RMSD>
1.2

> <PUBCHEM_CONFORMER_DIVERSEORDER>
3
196
51
87
56
151
136
122
76
48
282
139
188
140
18
97
293
77
220
109
174
289
228
261
242
96
116
291
178
59
112
199
246
153
85
163
49
243
58
72
276
29
241
66
53
128
6
91
33
238
200
81
99
177
102
194
93
145
150
8
263
271
120
88
166
233
167
45
20
46
50
214
258
110
39
287
210
229
190
24
278
141
155
130
149
143
152
156
133
256
173
107
237
79
164
73
292
208
217
171
184
232
114
108
260
262
181
172
170
32
203
70
80
266
69
213
285
37
42
288
277
83
35
147
11
125
169
160
94
126
41
131
198
268
38
13
100
227
40
78
61
272
103
224
264
162
189
204
52
219
127
92
17
193
34
218
251
215
253
124
43
269
286
250
245
223
281
36
101
195
84
157
22
201
123
216
183
187
270
239
244
280
142
207
234
75
148
259
179
55
144
28
135
202
158
176
283
235
14
254
113
12
240
225
255
104
205
64
212
209
230
19
221
226
54
257
186
279
63
89
161
180
105
27
68
47
197
248
90
1
265
252
16
119
60
284
211
137
132
7
30
175
67
106
129
9
182
26
118
117
267
121
206
4
44
71
115
138
2
82
62
290
154
231
275
146
10
74
57
21
86
168
15
65
5
273
192
191
98
236
247
111
165
159
25
31
134
274
23
222
95
249
185

> <PUBCHEM_MMFF94_PARTIAL_CHARGES>
40
1 -0.46
10 -0.73
11 -0.99
12 0.23
13 0.33
14 0.5
15 0.36
18 0.66
19 0.57
2 -0.65
20 0.3
21 0.57
24 0.2
26 0.33
27 -0.14
28 0.66
29 -0.15
3 -0.57
30 -0.15
31 -0.15
32 -0.15
33 -0.15
36 0.36
4 -0.57
44 0.37
45 0.37
5 -0.57
50 0.5
58 0.36
59 0.36
6 -0.65
60 0.15
61 0.15
62 0.15
63 0.15
64 0.15
65 0.5
7 -0.57
8 -0.9
9 -0.73

> <PUBCHEM_EFFECTIVE_ROTOR_COUNT>
15

> <PUBCHEM_PHARMACOPHORE_FEATURES>
17
1 10 donor
1 11 cation
1 11 donor
1 2 acceptor
1 3 acceptor
1 4 acceptor
1 5 acceptor
1 6 acceptor
1 7 acceptor
1 8 cation
1 8 donor
1 9 donor
3 12 16 17 hydrophobe
3 2 3 18 anion
3 6 7 28 anion
5 1 8 12 13 14 rings
6 27 29 30 31 32 33 rings

> <PUBCHEM_HEAVY_ATOM_COUNT>
33

> <PUBCHEM_ATOM_DEF_STEREO_COUNT>
3

> <PUBCHEM_ATOM_UDEF_STEREO_COUNT>
1

> <PUBCHEM_BOND_DEF_STEREO_COUNT>
0

> <PUBCHEM_BOND_UDEF_STEREO_COUNT>
0

> <PUBCHEM_ISOTOPIC_ATOM_COUNT>
0

> <PUBCHEM_COMPONENT_COUNT>
1

> <PUBCHEM_CACTVS_TAUTO_COUNT>
4

> <PUBCHEM_CONFORMER_ID>
02B2B77100000003

> <PUBCHEM_MMFF94_ENERGY>
60.8388

> <PUBCHEM_FEATURE_SELFOVERLAP>
86.388

> <PUBCHEM_SHAPE_FINGERPRINT>
11991303 11 18046643204290710239
12788726 201 18261104214161522458
14251757 5 18340484461372495713
14363568 33 18052259793253491009
14932702 115 18201716207128031120
15276724 80 18341336690289710028
15484559 13 17189537473443050076
15775530 1 17914306186724920128
16993438 75 18337675209548409897
17909252 39 18269274736981783568
19319366 153 17548968963236143125
20775438 99 17842809206510390180
21033650 10 18188223052208766134
21049683 271 17978800325968649570
21641784 216 18264787587110539004
22182313 1 18058427954653444848
23559900 14 18055909046867082227
23576562 1 18262537901143229540
24771750 20 17328594323889281564
3493558 16 17968667141013183396
4058900 60 17762336912683834205
4409770 3 18340207367410237107
5081480 168 18056474182699439405
5283173 99 18410853248868974330

> <PUBCHEM_SHAPE_MULTIPOLES>
627.83
13.49
5.96
1.8
11.51
5.17
0.04
-5.58
-3.31
-9.34
-0.33
-0.12
0.37
2.27

> <PUBCHEM_SHAPE_SELFOVERLAP>
1272.714

> <PUBCHEM_SHAPE_VOLUME>
365.9

> <PUBCHEM_COORDINATE_TYPE>
2
5
10

$$$$
