16478818
  -OEChem-06112215543D

 31 32  0     0  0  0  0  0  0999 V2000
   -4.9255   -2.8456   -0.3946 Br  0  0  0  0  0  0  0  0  0  0  0  0
   -5.7753    2.6867    0.7026 Br  0  0  0  0  0  0  0  0  0  0  0  0
    7.4191   -1.4842    0.6917 Br  0  0  0  0  0  0  0  0  0  0  0  0
   -6.4541   -0.2396    0.2596 O   0  0  0  0  0  0  0  0  0  0  0  0
   -2.0476   -1.8273   -0.5589 O   0  0  0  0  0  0  0  0  0  0  0  0
    1.9587   -1.1848    1.0857 O   0  0  0  0  0  0  0  0  0  0  0  0
   -0.0204   -0.1475   -0.5028 N   0  0  0  0  0  0  0  0  0  0  0  0
    1.2950    0.2401   -0.6160 N   0  0  0  0  0  0  0  0  0  0  0  0
   -2.3154    0.5043   -0.1081 C   0  0  0  0  0  0  0  0  0  0  0  0
   -2.8055   -0.8975   -0.3009 C   0  0  0  0  0  0  0  0  0  0  0  0
   -3.2665    1.5501    0.1950 C   0  0  0  0  0  0  0  0  0  0  0  0
    3.6254    0.1013    0.0485 C   0  0  0  0  0  0  0  0  0  0  0  0
   -1.0011    0.7421   -0.2243 C   0  0  0  0  0  0  0  0  0  0  0  0
   -4.2845   -1.1013   -0.1586 C   0  0  0  0  0  0  0  0  0  0  0  0
   -4.5804    1.2956    0.3081 C   0  0  0  0  0  0  0  0  0  0  0  0
   -5.0874   -0.0575    0.1265 C   0  0  0  0  0  0  0  0  0  0  0  0
    2.2180   -0.3414    0.2309 C   0  0  0  0  0  0  0  0  0  0  0  0
    4.6757   -0.7491    0.3944 C   0  0  0  0  0  0  0  0  0  0  0  0
    3.8953    1.3683   -0.4684 C   0  0  0  0  0  0  0  0  0  0  0  0
    5.9957   -0.3324    0.2230 C   0  0  0  0  0  0  0  0  0  0  0  0
    5.2154    1.7851   -0.6396 C   0  0  0  0  0  0  0  0  0  0  0  0
    6.2654    0.9347   -0.2939 C   0  0  0  0  0  0  0  0  0  0  0  0
   -2.8831    2.5584    0.3298 H   0  0  0  0  0  0  0  0  0  0  0  0
   -0.6212    1.7517   -0.0872 H   0  0  0  0  0  0  0  0  0  0  0  0
   -0.2322   -1.1223   -0.6751 H   0  0  0  0  0  0  0  0  0  0  0  0
    1.4973    0.8839   -1.3725 H   0  0  0  0  0  0  0  0  0  0  0  0
    4.4685   -1.7395    0.7935 H   0  0  0  0  0  0  0  0  0  0  0  0
    3.1066    2.0697   -0.7243 H   0  0  0  0  0  0  0  0  0  0  0  0
    5.4260    2.7741   -1.0362 H   0  0  0  0  0  0  0  0  0  0  0  0
    7.2883    1.2754   -0.4322 H   0  0  0  0  0  0  0  0  0  0  0  0
   -6.6484   -1.1817    0.1139 H   0  0  0  0  0  0  0  0  0  0  0  0
  1 14  1  0  0  0  0
  2 15  1  0  0  0  0
  3 20  1  0  0  0  0
  4 16  1  0  0  0  0
  4 31  1  0  0  0  0
  5 10  2  0  0  0  0
  6 17  2  0  0  0  0
  7  8  1  0  0  0  0
  7 13  1  0  0  0  0
  7 25  1  0  0  0  0
  8 17  1  0  0  0  0
  8 26  1  0  0  0  0
  9 10  1  0  0  0  0
  9 11  1  0  0  0  0
  9 13  2  0  0  0  0
 10 14  1  0  0  0  0
 11 15  2  0  0  0  0
 11 23  1  0  0  0  0
 12 17  1  0  0  0  0
 12 18  2  0  0  0  0
 12 19  1  0  0  0  0
 13 24  1  0  0  0  0
 14 16  2  0  0  0  0
 15 16  1  0  0  0  0
 18 20  1  0  0  0  0
 18 27  1  0  0  0  0
 19 21  2  0  0  0  0
 19 28  1  0  0  0  0
 20 22  2  0  0  0  0
 21 22  1  0  0  0  0
 21 29  1  0  0  0  0
 22 30  1  0  0  0  0
M  END
> <PUBCHEM_COMPOUND_CID>
16478818

> <PUBCHEM_CONFORMER_RMSD>
0.6

> <PUBCHEM_CONFORMER_DIVERSEORDER>
2
78
94
1
91
74
81
26
98
17
93
79
86
70
15
80
6
77
64
24
87
89
3
72
76
96
4
84
56
9
8
69
60
16
14
71
90
10
75
18
68
73
13
97
59
7
57
5
61
85
83
31
82
22
92
44
63
32
66
23
88
58
46
34
30
95
35
45
67
53
27
62
25
51
20
50
55
29
38
47
40
28
52
65
11
41
48
37
12
33
39
19
36
42
49
21
43
54

> <PUBCHEM_MMFF94_PARTIAL_CHARGES>
31
1 -0.11
10 0.54
11 -0.15
12 0.09
13 -0.05
14 0.12
15 0.11
16 0.08
17 0.54
18 -0.15
19 -0.15
2 -0.11
20 0.11
21 -0.15
22 -0.15
23 0.15
24 0.15
25 0.4
26 0.37
27 0.15
28 0.15
29 0.15
3 -0.11
30 0.15
31 0.45
4 -0.53
5 -0.57
6 -0.57
7 -0.52
8 -0.41
9 0.01

> <PUBCHEM_EFFECTIVE_ROTOR_COUNT>
4

> <PUBCHEM_PHARMACOPHORE_FEATURES>
10
1 1 hydrophobe
1 2 hydrophobe
1 3 hydrophobe
1 4 donor
1 5 acceptor
1 6 acceptor
1 7 donor
1 8 donor
6 12 18 19 20 21 22 rings
6 9 10 11 14 15 16 rings

> <PUBCHEM_HEAVY_ATOM_COUNT>
22

> <PUBCHEM_ATOM_DEF_STEREO_COUNT>
0

> <PUBCHEM_ATOM_UDEF_STEREO_COUNT>
0

> <PUBCHEM_BOND_DEF_STEREO_COUNT>
1

> <PUBCHEM_BOND_UDEF_STEREO_COUNT>
0

> <PUBCHEM_ISOTOPIC_ATOM_COUNT>
0

> <PUBCHEM_COMPONENT_COUNT>
1

> <PUBCHEM_CACTVS_TAUTO_COUNT>
24

> <PUBCHEM_CONFORMER_ID>
00FB726200000002

> <PUBCHEM_MMFF94_ENERGY>
55.306

> <PUBCHEM_FEATURE_SELFOVERLAP>
52.273

> <PUBCHEM_SHAPE_FINGERPRINT>
10299344 5 18334014986858162086
10319926 262 18201144520820252570
10411042 1 18053943142252854295
10595046 47 18337109068165216428
10912923 1 18259979388085719546
11315181 36 18335701663206485461
11524674 6 16773798125403916927
12091667 2 17561358474568158469
12107183 9 17760645867482540976
12166972 35 18113621196849078060
12236239 1 18408041823184917892
12596602 18 18187364371807074411
12616971 3 17749115495258714260
13073987 5 18339641252197592344
13167372 99 18410857633925439304
13167823 11 18408601478898617974
13533116 47 16660634112914998264
13631057 29 18339921636448158987
13668630 136 15936414450545228987
1420 363 16226047786596803816
14251764 18 18259982691875620256
14849402 71 18263644121415858780
14933364 13 18412829088222553728
15183329 4 18341899584688137894
15250474 111 18337376206251988722
15716309 27 18260830405695835027
1577012 14 18408325497485850372
15778101 99 18342461409333948785
17093844 174 18202276996654237011
17834072 33 18408885157056232532
17844677 252 18342462594228016280
20028762 73 18408036304680262378
20281389 69 18413670214370084136
21065198 48 18408037407615795603
21130935 74 18411696591715774626
21150785 3 10015571814483549280
21236236 1 18412826910885085887
21267235 1 18261115158265322958
21315763 28 18409448089729551361
220451 1 18114184116489164878
23035841 295 18410573985246624138
23081809 10 18260832626705545772
23402539 116 18412259549435632421
23522609 53 18043275520787949268
23536379 177 18411138030859596808
23559900 14 18268983362395456377
23569943 247 17169820086442302434
3004659 81 18411140221741232620
34797466 226 17560530602653404276
3663271 9 18410011057258539520
4073 2 18041568026490035730
4214541 1 18411699889564511061
4325135 7 18408041822789272596
5104073 3 18408038537514013432
542803 24 18413670218611933540
54446538 1 18410011035562306032
559249 180 18410008819311474711
5758199 1 18113338644088354608
59755656 520 17385726889325448282
6327066 14 18192427464831561629
67856867 119 18263085590186966749
7495541 125 17988359377461373648
9996256 80 18407757049731469510

> <PUBCHEM_SHAPE_MULTIPOLES>
443.01
20.58
2.46
0.82
15.94
0.3
-0.06
0
-2.67
-3.77
-0.01
0.3
0
-2.23

> <PUBCHEM_SHAPE_SELFOVERLAP>
904.838

> <PUBCHEM_SHAPE_VOLUME>
262.8

> <PUBCHEM_COORDINATE_TYPE>
2
5
10

$$$$
