131704311
  -OEChem-06112215543D

 25 25  0     0  0  0  0  0  0999 V2000
    1.3173    1.7930   -0.8035 O   0  0  0  0  0  0  0  0  0  0  0  0
   -1.1141   -0.8471   -0.7202 O   0  0  0  0  0  0  0  0  0  0  0  0
   -3.6097   -0.9360   -1.3183 O   0  0  0  0  0  0  0  0  0  0  0  0
   -4.1123    0.4951    0.3918 O   0  0  0  0  0  0  0  0  0  0  0  0
    1.0061   -0.0303    0.7308 C   0  0  0  0  0  0  0  0  0  0  0  0
    1.6493    0.5451   -0.3651 C   0  0  0  0  0  0  0  0  0  0  0  0
    1.3647   -1.3089    1.1576 C   0  0  0  0  0  0  0  0  0  0  0  0
    2.6510   -0.1582   -1.0341 C   0  0  0  0  0  0  0  0  0  0  0  0
   -0.0429    0.6835    1.4464 C   0  0  0  0  0  0  0  0  0  0  0  0
    2.3664   -2.0122    0.4884 C   0  0  0  0  0  0  0  0  0  0  0  0
    3.0096   -1.4369   -0.6074 C   0  0  0  0  0  0  0  0  0  0  0  0
   -1.3575    0.6451    1.1406 C   0  0  0  0  0  0  0  0  0  0  0  0
    2.0307    2.8888   -0.2354 C   0  0  0  0  0  0  0  0  0  0  0  0
   -1.8349   -0.1705   -0.0035 C   0  0  0  0  0  0  0  0  0  0  0  0
   -3.3237   -0.1507   -0.2682 C   0  0  0  0  0  0  0  0  0  0  0  0
    0.8738   -1.7723    2.0101 H   0  0  0  0  0  0  0  0  0  0  0  0
    3.1559    0.2829   -1.8894 H   0  0  0  0  0  0  0  0  0  0  0  0
    0.2854    1.2844    2.2903 H   0  0  0  0  0  0  0  0  0  0  0  0
    2.6456   -3.0078    0.8205 H   0  0  0  0  0  0  0  0  0  0  0  0
    3.7893   -1.9846   -1.1285 H   0  0  0  0  0  0  0  0  0  0  0  0
   -2.0721    1.2086    1.7286 H   0  0  0  0  0  0  0  0  0  0  0  0
    1.6268    3.8142   -0.6551 H   0  0  0  0  0  0  0  0  0  0  0  0
    3.0934    2.8250   -0.4901 H   0  0  0  0  0  0  0  0  0  0  0  0
    1.9078    2.9162    0.8517 H   0  0  0  0  0  0  0  0  0  0  0  0
   -2.8431   -1.3851   -1.7349 H   0  0  0  0  0  0  0  0  0  0  0  0
  1  6  1  0  0  0  0
  1 13  1  0  0  0  0
  2 14  2  0  0  0  0
  3 15  1  0  0  0  0
  3 25  1  0  0  0  0
  4 15  2  0  0  0  0
  5  6  1  0  0  0  0
  5  7  2  0  0  0  0
  5  9  1  0  0  0  0
  6  8  2  0  0  0  0
  7 10  1  0  0  0  0
  7 16  1  0  0  0  0
  8 11  1  0  0  0  0
  8 17  1  0  0  0  0
  9 12  2  0  0  0  0
  9 18  1  0  0  0  0
 10 11  2  0  0  0  0
 10 19  1  0  0  0  0
 11 20  1  0  0  0  0
 12 14  1  0  0  0  0
 12 21  1  0  0  0  0
 13 22  1  0  0  0  0
 13 23  1  0  0  0  0
 13 24  1  0  0  0  0
 14 15  1  0  0  0  0
M  END
> <PUBCHEM_COMPOUND_CID>
131704311

> <PUBCHEM_CONFORMER_RMSD>
0.6

> <PUBCHEM_CONFORMER_DIVERSEORDER>
1
23
21
16
20
6
17
24
15
3
13
5
10
2
22
9
8
14
4
19
18
7
12
11

> <PUBCHEM_MMFF94_PARTIAL_CHARGES>
22
1 -0.36
10 -0.15
11 -0.15
12 -0.14
13 0.28
14 0.56
15 0.72
16 0.15
17 0.15
18 0.15
19 0.15
2 -0.57
20 0.15
21 0.15
25 0.5
3 -0.65
4 -0.57
5 0.03
6 0.08
7 -0.15
8 -0.15
9 -0.18

> <PUBCHEM_EFFECTIVE_ROTOR_COUNT>
4

> <PUBCHEM_PHARMACOPHORE_FEATURES>
6
1 1 acceptor
1 2 acceptor
1 3 acceptor
1 4 acceptor
3 3 4 15 anion
6 5 6 7 8 10 11 rings

> <PUBCHEM_HEAVY_ATOM_COUNT>
15

> <PUBCHEM_ATOM_DEF_STEREO_COUNT>
0

> <PUBCHEM_ATOM_UDEF_STEREO_COUNT>
0

> <PUBCHEM_BOND_DEF_STEREO_COUNT>
1

> <PUBCHEM_BOND_UDEF_STEREO_COUNT>
0

> <PUBCHEM_ISOTOPIC_ATOM_COUNT>
0

> <PUBCHEM_COMPONENT_COUNT>
1

> <PUBCHEM_CACTVS_TAUTO_COUNT>
1

> <PUBCHEM_CONFORMER_ID>
07D9A5F700000001

> <PUBCHEM_MMFF94_ENERGY>
54.059

> <PUBCHEM_FEATURE_SELFOVERLAP>
30.516

> <PUBCHEM_SHAPE_FINGERPRINT>
10764073 3 15582804828326714216
11031198 65 17385733486326408498
11578080 2 18054486055334533704
12400797 292 18341618177982433182
12932764 1 17095516301780721987
13380536 305 18335423473573924666
13764800 53 12829788275406071221
14115302 16 17918276428897111097
14817 1 16112007849228962504
16945 1 18335998518413435162
18186145 218 17748824120751404177
19422 9 18272374200320397387
19765921 60 18053664964655388608
20339313 130 18337393746923850787
20361792 2 18337952264486963770
20645476 183 18343023328300125039
20645477 70 18412261766124281311
20671657 53 18338518530250005206
20820808 20 18266178524721759584
21524375 3 17684078459121397092
21947302 44 17603866757897121608
22112679 90 18123762950089512600
2255824 54 18410292531797471454
230 275 16008734832072870117
232386 152 17346874546456566519
23419403 2 13896568851067637768
23526113 38 16515980176308989264
23559900 14 16700901467066348166
23598291 2 18127715775642746528
25 1 18041009478645684924
2748010 2 17755609344355809608
3060560 45 18186796984915423175
7364860 26 18341330076008646632
74978 22 18409731772483164363
77492 1 18271255914820813178
7832392 63 18191305974969609461
84936 182 18198910394876877944

> <PUBCHEM_SHAPE_MULTIPOLES>
285.22
5.71
2.11
1.26
5.84
1.28
-0.15
-1.35
1.67
-2.23
0.13
0.09
-0.1
-0.72

> <PUBCHEM_SHAPE_SELFOVERLAP>
596.937

> <PUBCHEM_SHAPE_VOLUME>
160.1

> <PUBCHEM_COORDINATE_TYPE>
2
5
10

$$$$
