443833
  -OEChem-06112215543D

 35 37  0     1  0  0  0  0  0999 V2000
   -2.4318   -0.7142   -0.3691 O   0  0  0  0  0  0  0  0  0  0  0  0
    1.4831   -2.4064   -0.2031 O   0  0  0  0  0  0  0  0  0  0  0  0
   -6.2421    0.6592    0.1541 O   0  0  0  0  0  0  0  0  0  0  0  0
    4.1293   -1.9016    0.1302 O   0  0  0  0  0  0  0  0  0  0  0  0
   -4.7441   -0.7140    1.1793 O   0  0  0  0  0  0  0  0  0  0  0  0
   -2.5478    0.6539    0.0342 C   0  0  1  0  0  0  0  0  0  0  0  0
   -1.5435    1.4954   -0.7355 C   0  0  0  0  0  0  0  0  0  0  0  0
   -0.1718    0.9766   -0.4235 C   0  0  0  0  0  0  0  0  0  0  0  0
   -0.0141   -0.4918   -0.2837 C   0  0  0  0  0  0  0  0  0  0  0  0
   -1.1494   -1.2475   -0.2940 C   0  0  0  0  0  0  0  0  0  0  0  0
   -3.9751    1.1003   -0.2552 C   0  0  0  0  0  0  0  0  0  0  0  0
    0.8796    1.7986   -0.2605 C   0  0  0  0  0  0  0  0  0  0  0  0
    1.3688   -1.0345   -0.1540 C   0  0  0  0  0  0  0  0  0  0  0  0
    2.2034    1.2557    0.0054 C   0  0  0  0  0  0  0  0  0  0  0  0
    2.4253   -0.1988    0.0014 C   0  0  0  0  0  0  0  0  0  0  0  0
   -1.2166   -2.7477   -0.2053 C   0  0  0  0  0  0  0  0  0  0  0  0
    3.2401    2.0883    0.2094 C   0  0  0  0  0  0  0  0  0  0  0  0
    3.8293   -0.7137    0.1734 C   0  0  0  0  0  0  0  0  0  0  0  0
   -4.9864    0.2343    0.4480 C   0  0  0  0  0  0  0  0  0  0  0  0
    4.5788    1.6044    0.4336 C   0  0  0  0  0  0  0  0  0  0  0  0
    4.8851    0.3034    0.4148 C   0  0  0  0  0  0  0  0  0  0  0  0
   -2.3659    0.7127    1.1172 H   0  0  0  0  0  0  0  0  0  0  0  0
   -1.6446    2.5535   -0.4679 H   0  0  0  0  0  0  0  0  0  0  0  0
   -1.7129    1.4018   -1.8161 H   0  0  0  0  0  0  0  0  0  0  0  0
   -4.1181    2.1375    0.0667 H   0  0  0  0  0  0  0  0  0  0  0  0
   -4.1783    1.0223   -1.3303 H   0  0  0  0  0  0  0  0  0  0  0  0
    0.7626    2.8745   -0.3515 H   0  0  0  0  0  0  0  0  0  0  0  0
   -0.7410   -3.1132    0.7100 H   0  0  0  0  0  0  0  0  0  0  0  0
   -0.7594   -3.2140   -1.0835 H   0  0  0  0  0  0  0  0  0  0  0  0
   -2.2575   -3.0904   -0.1719 H   0  0  0  0  0  0  0  0  0  0  0  0
    3.1139    3.1674    0.2040 H   0  0  0  0  0  0  0  0  0  0  0  0
    5.3528    2.3440    0.6105 H   0  0  0  0  0  0  0  0  0  0  0  0
    5.9000   -0.0419    0.5746 H   0  0  0  0  0  0  0  0  0  0  0  0
    2.4166   -2.6560   -0.1163 H   0  0  0  0  0  0  0  0  0  0  0  0
   -6.9260    0.1141    0.5985 H   0  0  0  0  0  0  0  0  0  0  0  0
  1  6  1  0  0  0  0
  1 10  1  0  0  0  0
  2 13  1  0  0  0  0
  2 34  1  0  0  0  0
  3 19  1  0  0  0  0
  3 35  1  0  0  0  0
  4 18  2  0  0  0  0
  5 19  2  0  0  0  0
  6  7  1  0  0  0  0
  6 11  1  0  0  0  0
  6 22  1  0  0  0  0
  7  8  1  0  0  0  0
  7 23  1  0  0  0  0
  7 24  1  0  0  0  0
  8  9  1  0  0  0  0
  8 12  2  0  0  0  0
  9 10  2  0  0  0  0
  9 13  1  0  0  0  0
 10 16  1  0  0  0  0
 11 19  1  0  0  0  0
 11 25  1  0  0  0  0
 11 26  1  0  0  0  0
 12 14  1  0  0  0  0
 12 27  1  0  0  0  0
 13 15  2  0  0  0  0
 14 15  1  0  0  0  0
 14 17  2  0  0  0  0
 15 18  1  0  0  0  0
 16 28  1  0  0  0  0
 16 29  1  0  0  0  0
 16 30  1  0  0  0  0
 17 20  1  0  0  0  0
 17 31  1  0  0  0  0
 18 21  1  0  0  0  0
 20 21  2  0  0  0  0
 20 32  1  0  0  0  0
 21 33  1  0  0  0  0
M  END
> <PUBCHEM_COMPOUND_CID>
443833

> <PUBCHEM_CONFORMER_RMSD>
0.6

> <PUBCHEM_CONFORMER_DIVERSEORDER>
1
4
3
5
6
2

> <PUBCHEM_MMFF94_PARTIAL_CHARGES>
25
1 -0.36
10 -0.06
11 0.06
12 -0.15
13 0.08
15 0.01
16 0.14
17 -0.15
18 0.54
19 0.66
2 -0.53
20 -0.15
21 -0.14
27 0.15
3 -0.65
31 0.15
32 0.15
33 0.15
34 0.45
35 0.5
4 -0.57
5 -0.57
6 0.28
7 0.14
8 -0.14

> <PUBCHEM_EFFECTIVE_ROTOR_COUNT>
2.6

> <PUBCHEM_PHARMACOPHORE_FEATURES>
9
1 1 acceptor
1 2 donor
1 3 acceptor
1 4 acceptor
1 5 acceptor
3 3 5 19 anion
6 1 6 7 8 9 10 rings
6 14 15 17 18 20 21 rings
6 8 9 12 13 14 15 rings

> <PUBCHEM_HEAVY_ATOM_COUNT>
21

> <PUBCHEM_ATOM_DEF_STEREO_COUNT>
1

> <PUBCHEM_ATOM_UDEF_STEREO_COUNT>
0

> <PUBCHEM_BOND_DEF_STEREO_COUNT>
0

> <PUBCHEM_BOND_UDEF_STEREO_COUNT>
0

> <PUBCHEM_ISOTOPIC_ATOM_COUNT>
0

> <PUBCHEM_COMPONENT_COUNT>
1

> <PUBCHEM_CACTVS_TAUTO_COUNT>
57

> <PUBCHEM_CONFORMER_ID>
0006C5B900000001

> <PUBCHEM_MMFF94_ENERGY>
58.0592

> <PUBCHEM_FEATURE_SELFOVERLAP>
45.781

> <PUBCHEM_SHAPE_FINGERPRINT>
10 15 18261666078226955920
10411042 1 17691688887714669430
10493431 412 18340485659441381465
10616163 171 18267019647375792374
10967382 1 18410849946023169588
11045977 3 18187088355844599379
11578080 2 17201343316395631634
12236239 1 17775281647786842189
12251169 10 18410574011063868172
12403259 415 18261387815226178749
12507560 40 18334010567073291533
12592029 89 18409166580498747218
12788726 201 17489599939034954224
13140716 1 18338230595768997552
13533116 47 17775005652808638426
13583140 156 16661463199862904749
13675066 3 18187082870970960469
14341114 176 18408611348617348377
14617045 38 18408328783045836174
14787075 74 18202559601386772265
14790565 3 18411143527933185941
15196674 1 18411135865721429799
15475509 35 16950557727782332914
15536298 74 18342455941729577364
16945 1 18266164064141484028
1813 80 16877942750026381252
19141452 34 18411979199708795687
19591789 44 18337107848210063478
20028762 73 18201432589168660623
20261772 1 18410012169164354555
20739085 24 18264224538014485109
21033648 29 18337371795615825265
21267235 1 18338521837823313438
21421861 104 18041544876869323226
21682296 61 18198630916917320607
22182313 1 18188202092298681981
22854114 59 18411700988965395009
23184049 59 18410577279581336349
2334 1 18266451187047635694
23402539 116 18201432610579498093
23558518 356 17756704504912591912
23559900 14 18272366521283187392
2748010 2 17762327025451938414
335352 9 18411980261319981598
34934 24 18339918316247982870
350125 39 18337955593160763628
3545911 37 18412262852766818056
42630746 31 18343585122564133885
465052 167 17894354379791204017
495365 180 17346586517908375616
5104073 3 18339073895148920138
58807428 26 18335687378361641234
59755656 215 18341338820978533158
69090 78 18411694400453661167
9709674 26 18340485655674279446
9999458 23 18186240632474406094

> <PUBCHEM_SHAPE_MULTIPOLES>
402.82
10.68
2.4
0.74
7.59
1.03
0.04
-2.44
2.79
-1.13
-0.17
0.29
-0.04
0.31

> <PUBCHEM_SHAPE_SELFOVERLAP>
882.559

> <PUBCHEM_SHAPE_VOLUME>
215.1

> <PUBCHEM_COORDINATE_TYPE>
2
5
10

$$$$
