52941757
  -OEChem-06112217093D

 50 51  0     1  0  0  0  0  0999 V2000
   -5.6676   -1.7987   -0.1883 O   0  0  0  0  0  0  0  0  0  0  0  0
   -1.4676   -3.6713    1.0269 O   0  0  0  0  0  0  0  0  0  0  0  0
    2.9516   -0.8730    0.3003 O   0  0  0  0  0  0  0  0  0  0  0  0
   -3.6123    2.2151    1.6735 O   0  0  0  0  0  0  0  0  0  0  0  0
   -2.7428    2.8783   -0.3138 O   0  0  0  0  0  0  0  0  0  0  0  0
    0.8272    3.0796    1.2159 O   0  0  0  0  0  0  0  0  0  0  0  0
   -0.1318   -1.4415   -0.0308 N   0  0  0  0  0  0  0  0  0  0  0  0
   -5.5930    2.6823   -0.9705 N   0  0  0  0  0  0  0  0  0  0  0  0
   -4.4385    0.5266   -1.3026 C   0  0  0  0  0  0  0  0  0  0  0  0
   -3.6595   -0.5879   -0.6859 C   0  0  0  0  0  0  0  0  0  0  0  0
   -4.8344    1.6301   -0.2982 C   0  0  1  0  0  0  0  0  0  0  0  0
   -2.2678   -0.5059   -0.6434 C   0  0  0  0  0  0  0  0  0  0  0  0
   -1.5253   -1.5378   -0.0692 C   0  0  0  0  0  0  0  0  0  0  0  0
   -4.3089   -1.7021   -0.1541 C   0  0  0  0  0  0  0  0  0  0  0  0
   -2.1748   -2.6520    0.4623 C   0  0  0  0  0  0  0  0  0  0  0  0
   -3.5665   -2.7341    0.4199 C   0  0  0  0  0  0  0  0  0  0  0  0
    0.6376   -0.3124    0.0450 C   0  0  0  0  0  0  0  0  0  0  0  0
   -3.6170    2.2983    0.3176 C   0  0  0  0  0  0  0  0  0  0  0  0
    1.9831   -0.4137   -0.6348 C   0  0  0  0  0  0  0  0  0  0  0  0
    0.2996    0.8473    0.6375 C   0  0  0  0  0  0  0  0  0  0  0  0
    4.2497   -0.4940    0.0802 C   0  0  0  0  0  0  0  0  0  0  0  0
    6.8933    0.2758   -0.3683 C   0  0  0  0  0  0  0  0  0  0  0  0
    4.7003   -0.2722   -1.2212 C   0  0  0  0  0  0  0  0  0  0  0  0
    5.1210   -0.3310    1.1573 C   0  0  0  0  0  0  0  0  0  0  0  0
    6.0220    0.1126   -1.4453 C   0  0  0  0  0  0  0  0  0  0  0  0
    6.4427    0.0538    0.9329 C   0  0  0  0  0  0  0  0  0  0  0  0
    8.3065    0.6871   -0.6075 C   0  0  0  0  0  0  0  0  0  0  0  0
    1.1733    2.0407    0.6646 C   0  0  0  0  0  0  0  0  0  0  0  0
   -5.3376    0.1280   -1.7914 H   0  0  0  0  0  0  0  0  0  0  0  0
   -3.8473    0.9626   -2.1208 H   0  0  0  0  0  0  0  0  0  0  0  0
   -5.4511    1.1989    0.4995 H   0  0  0  0  0  0  0  0  0  0  0  0
   -1.7781    0.3509   -1.0985 H   0  0  0  0  0  0  0  0  0  0  0  0
   -4.0731   -3.6026    0.8341 H   0  0  0  0  0  0  0  0  0  0  0  0
    0.3718   -2.3195   -0.1018 H   0  0  0  0  0  0  0  0  0  0  0  0
   -5.9343    3.3523   -0.2819 H   0  0  0  0  0  0  0  0  0  0  0  0
   -6.4210    2.2804   -1.4085 H   0  0  0  0  0  0  0  0  0  0  0  0
    2.2534    0.5228   -1.1348 H   0  0  0  0  0  0  0  0  0  0  0  0
    1.9159   -1.1583   -1.4409 H   0  0  0  0  0  0  0  0  0  0  0  0
   -5.9375   -2.6364    0.2255 H   0  0  0  0  0  0  0  0  0  0  0  0
   -0.6498    0.9613    1.1518 H   0  0  0  0  0  0  0  0  0  0  0  0
   -2.0863   -4.3537    1.3391 H   0  0  0  0  0  0  0  0  0  0  0  0
    4.0656   -0.4179   -2.0901 H   0  0  0  0  0  0  0  0  0  0  0  0
    4.7750   -0.5018    2.1730 H   0  0  0  0  0  0  0  0  0  0  0  0
    6.3632    0.2777   -2.4640 H   0  0  0  0  0  0  0  0  0  0  0  0
    7.1114    0.1794    1.7804 H   0  0  0  0  0  0  0  0  0  0  0  0
   -2.8288    2.6583    2.0636 H   0  0  0  0  0  0  0  0  0  0  0  0
    8.6656    0.3234   -1.5763 H   0  0  0  0  0  0  0  0  0  0  0  0
    8.9732    0.2733    0.1567 H   0  0  0  0  0  0  0  0  0  0  0  0
    8.3881    1.7785   -0.5905 H   0  0  0  0  0  0  0  0  0  0  0  0
    2.1675    1.9706    0.2076 H   0  0  0  0  0  0  0  0  0  0  0  0
  1 14  1  0  0  0  0
  1 39  1  0  0  0  0
  2 15  1  0  0  0  0
  2 41  1  0  0  0  0
  3 19  1  0  0  0  0
  3 21  1  0  0  0  0
  4 18  1  0  0  0  0
  4 46  1  0  0  0  0
  5 18  2  0  0  0  0
  6 28  2  0  0  0  0
  7 13  1  0  0  0  0
  7 17  1  0  0  0  0
  7 34  1  0  0  0  0
  8 11  1  0  0  0  0
  8 35  1  0  0  0  0
  8 36  1  0  0  0  0
  9 10  1  0  0  0  0
  9 11  1  0  0  0  0
  9 29  1  0  0  0  0
  9 30  1  0  0  0  0
 10 12  2  0  0  0  0
 10 14  1  0  0  0  0
 11 18  1  0  0  0  0
 11 31  1  0  0  0  0
 12 13  1  0  0  0  0
 12 32  1  0  0  0  0
 13 15  2  0  0  0  0
 14 16  2  0  0  0  0
 15 16  1  0  0  0  0
 16 33  1  0  0  0  0
 17 19  1  0  0  0  0
 17 20  2  0  0  0  0
 19 37  1  0  0  0  0
 19 38  1  0  0  0  0
 20 28  1  0  0  0  0
 20 40  1  0  0  0  0
 21 23  2  0  0  0  0
 21 24  1  0  0  0  0
 22 25  2  0  0  0  0
 22 26  1  0  0  0  0
 22 27  1  0  0  0  0
 23 25  1  0  0  0  0
 23 42  1  0  0  0  0
 24 26  2  0  0  0  0
 24 43  1  0  0  0  0
 25 44  1  0  0  0  0
 26 45  1  0  0  0  0
 27 47  1  0  0  0  0
 27 48  1  0  0  0  0
 27 49  1  0  0  0  0
 28 50  1  0  0  0  0
M  END
> <PUBCHEM_COMPOUND_CID>
52941757

> <PUBCHEM_CONFORMER_RMSD>
1

> <PUBCHEM_CONFORMER_DIVERSEORDER>
3
87
96
61
81
23
89
93
141
27
102
30
50
136
85
73
91
129
140
104
41
120
113
20
83
135
79
64
82
138
128
108
32
92
45
95
124
49
94
97
139
62
106
84
125
126
40
101
6
13
77
24
114
68
71
42
118
65
115
22
72
103
109
25
52
63
59
14
134
80
60
74
76
90
17
28
38
11
18
98
56
112
127
88
137
33
111
116
55
39
47
107
130
133
36
121
78
57
100
110
43
86
53
119
105
21
46
37
122
1
67
44
10
34
123
48
2
117
12
4
26
51
29
75
35
19
58
132
69
5
15
8
31
9
7
16
70
54
131
66
99

> <PUBCHEM_MMFF94_PARTIAL_CHARGES>
42
1 -0.53
10 -0.14
11 0.33
12 -0.15
13 0.1
14 0.08
15 0.08
16 -0.15
17 -0.04
18 0.66
19 0.42
2 -0.53
20 -0.14
21 0.08
22 -0.14
23 -0.15
24 -0.15
25 -0.15
26 -0.15
27 0.14
28 0.5
3 -0.36
32 0.15
33 0.15
34 0.4
35 0.36
36 0.36
39 0.45
4 -0.65
40 0.15
41 0.45
42 0.15
43 0.15
44 0.15
45 0.15
46 0.5
5 -0.57
50 0.06
6 -0.57
7 -0.6
8 -0.99
9 0.14

> <PUBCHEM_EFFECTIVE_ROTOR_COUNT>
9

> <PUBCHEM_PHARMACOPHORE_FEATURES>
13
1 1 donor
1 2 donor
1 3 acceptor
1 4 acceptor
1 5 acceptor
1 6 acceptor
1 7 cation
1 7 donor
1 8 cation
1 8 donor
3 4 5 18 anion
6 10 12 13 14 15 16 rings
6 21 22 23 24 25 26 rings

> <PUBCHEM_HEAVY_ATOM_COUNT>
28

> <PUBCHEM_ATOM_DEF_STEREO_COUNT>
1

> <PUBCHEM_ATOM_UDEF_STEREO_COUNT>
0

> <PUBCHEM_BOND_DEF_STEREO_COUNT>
1

> <PUBCHEM_BOND_UDEF_STEREO_COUNT>
0

> <PUBCHEM_ISOTOPIC_ATOM_COUNT>
0

> <PUBCHEM_COMPONENT_COUNT>
1

> <PUBCHEM_CACTVS_TAUTO_COUNT>
45

> <PUBCHEM_CONFORMER_ID>
0327D3BD00000003

> <PUBCHEM_MMFF94_ENERGY>
87.1343

> <PUBCHEM_FEATURE_SELFOVERLAP>
66.034

> <PUBCHEM_SHAPE_FINGERPRINT>
10165383 225 18261389997855490205
10411042 1 17975698613138583459
10906281 52 18272381832187119052
10940486 97 18261393415852535204
11315181 36 17822010951348089983
12107698 1 18272081747454751319
12236239 1 17967246503940779074
12516196 113 18201720704195783050
12645989 146 18127969926538881767
12788726 201 18200028435330438584
13690498 29 18195530521950371038
14251757 5 18410015442003410696
14466204 15 18410849945411525914
14765038 42 17986685770414228545
14790565 3 17693665818168809673
14856354 85 18335144240575781286
14931854 50 18198892640141024237
15021287 119 16877664573911400230
15183329 4 18261108582638854932
15419008 47 17917710231611233480
17844677 252 18336832008530969504
18608769 82 18408889564331352099
20511986 3 17894897547821572418
21033648 29 17346303913075938482
21236236 1 18413390929657401967
21279426 13 18269558251994119742
23559900 14 18118961640224235151
23569914 152 16551165437915079276
3004659 81 18260829354367617062
335352 9 18412258450799769509
350125 39 18407760348593374447
4073 2 18259990379651569026
445580 37 18408329899769040310
5283173 99 18412545384231617536
59567204 34 18411420609115901420
7226269 152 18412826858886594424

> <PUBCHEM_SHAPE_MULTIPOLES>
531.05
17.97
3.32
1.19
29.41
0.26
0.01
3.13
-3.91
-6.67
1.04
0.49
0.3
0.43

> <PUBCHEM_SHAPE_SELFOVERLAP>
1122.106

> <PUBCHEM_SHAPE_VOLUME>
296.3

> <PUBCHEM_COORDINATE_TYPE>
2
5
10

$$$$
