46937113
  -OEChem-06112217083D

 23 23  0     0  0  0  0  0  0999 V2000
   -2.5176    2.1669    0.1753 O   0  0  0  0  0  0  0  0  0  0  0  0
   -4.0196    0.0007   -0.7060 O   0  0  0  0  0  0  0  0  0  0  0  0
    3.4615    1.1960    0.7448 O   0  0  0  0  0  0  0  0  0  0  0  0
    2.6813    1.2151   -1.4155 O   0  0  0  0  0  0  0  0  0  0  0  0
    2.6685   -1.6421   -0.7237 N   0  0  0  0  0  0  0  0  0  0  0  0
   -0.1321   -0.5639    0.6381 C   0  0  0  0  0  0  0  0  0  0  0  0
    1.2644   -0.7709    1.1188 C   0  0  0  0  0  0  0  0  0  0  0  0
   -0.6845    0.7169    0.6306 C   0  0  0  0  0  0  0  0  0  0  0  0
   -0.8855   -1.6509    0.1949 C   0  0  0  0  0  0  0  0  0  0  0  0
   -1.9902    0.9108    0.1798 C   0  0  0  0  0  0  0  0  0  0  0  0
   -2.1914   -1.4571   -0.2556 C   0  0  0  0  0  0  0  0  0  0  0  0
   -2.7437   -0.1762   -0.2632 C   0  0  0  0  0  0  0  0  0  0  0  0
    2.2731   -0.6518    0.0030 C   0  0  0  0  0  0  0  0  0  0  0  0
    2.8158    0.7065   -0.3215 C   0  0  0  0  0  0  0  0  0  0  0  0
    1.3652   -1.7664    1.5694 H   0  0  0  0  0  0  0  0  0  0  0  0
    1.5063   -0.0587    1.9162 H   0  0  0  0  0  0  0  0  0  0  0  0
   -0.0959    1.5640    0.9750 H   0  0  0  0  0  0  0  0  0  0  0  0
   -0.4663   -2.6537    0.1940 H   0  0  0  0  0  0  0  0  0  0  0  0
   -2.7670   -2.3127   -0.5984 H   0  0  0  0  0  0  0  0  0  0  0  0
   -1.8533    2.7911    0.5144 H   0  0  0  0  0  0  0  0  0  0  0  0
    3.3407   -1.3283   -1.4320 H   0  0  0  0  0  0  0  0  0  0  0  0
   -4.3849   -0.8606   -0.9718 H   0  0  0  0  0  0  0  0  0  0  0  0
    3.8461    2.0818    0.5723 H   0  0  0  0  0  0  0  0  0  0  0  0
  1 10  1  0  0  0  0
  1 20  1  0  0  0  0
  2 12  1  0  0  0  0
  2 22  1  0  0  0  0
  3 14  1  0  0  0  0
  3 23  1  0  0  0  0
  4 14  2  0  0  0  0
  5 13  2  0  0  0  0
  5 21  1  0  0  0  0
  6  7  1  0  0  0  0
  6  8  2  0  0  0  0
  6  9  1  0  0  0  0
  7 13  1  0  0  0  0
  7 15  1  0  0  0  0
  7 16  1  0  0  0  0
  8 10  1  0  0  0  0
  8 17  1  0  0  0  0
  9 11  2  0  0  0  0
  9 18  1  0  0  0  0
 10 12  2  0  0  0  0
 11 12  1  0  0  0  0
 11 19  1  0  0  0  0
 13 14  1  0  0  0  0
M  END
> <PUBCHEM_COMPOUND_CID>
46937113

> <PUBCHEM_CONFORMER_RMSD>
0.6

> <PUBCHEM_CONFORMER_DIVERSEORDER>
1
19
36
45
43
25
26
7
13
31
29
42
40
44
41
34
39
37
28
46
9
3
33
32
11
14
15
35
38
5
30
8
21
10
17
23
2
4
18
24
27
16
6
12
22
20

> <PUBCHEM_MMFF94_PARTIAL_CHARGES>
21
1 -0.53
10 0.08
11 -0.15
12 0.08
13 0.39
14 0.72
17 0.15
18 0.15
19 0.15
2 -0.53
20 0.45
21 0.4
22 0.45
23 0.5
3 -0.65
4 -0.57
5 -0.85
6 -0.14
7 0.2
8 -0.15
9 -0.15

> <PUBCHEM_EFFECTIVE_ROTOR_COUNT>
3

> <PUBCHEM_PHARMACOPHORE_FEATURES>
8
1 1 donor
1 2 donor
1 3 acceptor
1 4 acceptor
1 5 acceptor
1 5 donor
3 3 4 14 anion
6 6 8 9 10 11 12 rings

> <PUBCHEM_HEAVY_ATOM_COUNT>
14

> <PUBCHEM_ATOM_DEF_STEREO_COUNT>
0

> <PUBCHEM_ATOM_UDEF_STEREO_COUNT>
0

> <PUBCHEM_BOND_DEF_STEREO_COUNT>
0

> <PUBCHEM_BOND_UDEF_STEREO_COUNT>
0

> <PUBCHEM_ISOTOPIC_ATOM_COUNT>
0

> <PUBCHEM_COMPONENT_COUNT>
1

> <PUBCHEM_CACTVS_TAUTO_COUNT>
38

> <PUBCHEM_CONFORMER_ID>
02CC341900000001

> <PUBCHEM_MMFF94_ENERGY>
32.078

> <PUBCHEM_FEATURE_SELFOVERLAP>
40.654

> <PUBCHEM_SHAPE_FINGERPRINT>
11715629 250 18413103970192317488
12162725 195 18334294275327098086
12173636 292 18340483374999010077
12897270 3 18272094954152145026
12932764 1 18060429031382385650
13764800 53 17822586000345521851
14250199 8 18261402151900514916
15775835 57 17530963613700079014
16945 1 18339930440386830139
17134986 127 17977662005285730573
18186145 218 18187646856058933911
20361792 2 14261354639352382426
20645476 183 18186794769087020179
20653085 51 18264219023355065859
20871999 31 18269260435062473879
22802520 49 18271819990119229162
230 275 18040437694092092496
23402539 116 18265317568778834270
23552423 10 18338233747995970171
23557571 272 18197220454068072410
23559900 14 18272644658790468026
353137 74 18335134306505738353
537710 114 18336264626197854461
7364860 26 18339917117957973466
93112 12 18412548678181526310

> <PUBCHEM_SHAPE_MULTIPOLES>
259.66
5.93
1.81
0.97
0.34
0.15
-0.04
1.38
-1.37
-0.19
-0.07
0.47
0.05
-0.19

> <PUBCHEM_SHAPE_SELFOVERLAP>
544.625

> <PUBCHEM_SHAPE_VOLUME>
146.1

> <PUBCHEM_COORDINATE_TYPE>
2
5
10

$$$$
