123871
  -OEChem-06112215543D

 24 24  0     1  0  0  0  0  0999 V2000
    0.1448   -2.6939    0.2550 O   0  0  0  0  0  0  0  0  0  0  0  0
   -1.5581    1.1706    1.5677 O   0  0  0  0  0  0  0  0  0  0  0  0
   -3.1105    1.8096    0.0417 O   0  0  0  0  0  0  0  0  0  0  0  0
    2.4602    2.1479   -0.6314 O   0  0  0  0  0  0  0  0  0  0  0  0
    3.8639    0.2242    0.6165 O   0  0  0  0  0  0  0  0  0  0  0  0
   -3.7347   -0.8333   -0.3667 N   0  0  0  0  0  0  0  0  0  0  0  0
   -1.3760   -0.7821   -1.0289 C   0  0  0  0  0  0  0  0  0  0  0  0
   -2.3829   -0.5189    0.0929 C   0  0  1  0  0  0  0  0  0  0  0  0
    0.0311   -0.4585   -0.6078 C   0  0  0  0  0  0  0  0  0  0  0  0
    0.8022   -1.4932    0.0675 C   0  0  0  0  0  0  0  0  0  0  0  0
    0.5532    0.7543   -0.8524 C   0  0  0  0  0  0  0  0  0  0  0  0
   -2.4109    0.9349    0.5351 C   0  0  0  0  0  0  0  0  0  0  0  0
    2.0628   -1.3127    0.4851 C   0  0  0  0  0  0  0  0  0  0  0  0
    1.9348    1.0632   -0.4354 C   0  0  0  0  0  0  0  0  0  0  0  0
    2.7201   -0.0121    0.2612 C   0  0  0  0  0  0  0  0  0  0  0  0
   -1.6377   -0.1614   -1.8990 H   0  0  0  0  0  0  0  0  0  0  0  0
   -1.4509   -1.8157   -1.3911 H   0  0  0  0  0  0  0  0  0  0  0  0
   -2.1715   -1.1471    0.9665 H   0  0  0  0  0  0  0  0  0  0  0  0
   -0.0038    1.5371   -1.3549 H   0  0  0  0  0  0  0  0  0  0  0  0
   -4.3892   -0.7530    0.4108 H   0  0  0  0  0  0  0  0  0  0  0  0
   -3.7755   -1.8054   -0.6709 H   0  0  0  0  0  0  0  0  0  0  0  0
    2.6275   -2.0896    0.9868 H   0  0  0  0  0  0  0  0  0  0  0  0
    0.7495   -3.3041    0.7114 H   0  0  0  0  0  0  0  0  0  0  0  0
   -1.5775    2.1099    1.8500 H   0  0  0  0  0  0  0  0  0  0  0  0
  1 10  1  0  0  0  0
  1 23  1  0  0  0  0
  2 12  1  0  0  0  0
  2 24  1  0  0  0  0
  3 12  2  0  0  0  0
  4 14  2  0  0  0  0
  5 15  2  0  0  0  0
  6  8  1  0  0  0  0
  6 20  1  0  0  0  0
  6 21  1  0  0  0  0
  7  8  1  0  0  0  0
  7  9  1  0  0  0  0
  7 16  1  0  0  0  0
  7 17  1  0  0  0  0
  8 12  1  0  0  0  0
  8 18  1  0  0  0  0
  9 10  1  0  0  0  0
  9 11  2  0  0  0  0
 10 13  2  0  0  0  0
 11 14  1  0  0  0  0
 11 19  1  0  0  0  0
 13 15  1  0  0  0  0
 13 22  1  0  0  0  0
 14 15  1  0  0  0  0
M  END
> <PUBCHEM_COMPOUND_CID>
123871

> <PUBCHEM_CONFORMER_RMSD>
0.6

> <PUBCHEM_CONFORMER_DIVERSEORDER>
1
3
6
10
8
14
7
13
4
5
11
2
12
9

> <PUBCHEM_MMFF94_PARTIAL_CHARGES>
21
1 -0.53
10 0.08
11 -0.14
12 0.66
13 -0.14
14 0.56
15 0.56
19 0.15
2 -0.65
20 0.36
21 0.36
22 0.15
23 0.45
24 0.5
3 -0.57
4 -0.57
5 -0.57
6 -0.99
7 0.14
8 0.33
9 -0.14

> <PUBCHEM_EFFECTIVE_ROTOR_COUNT>
3

> <PUBCHEM_PHARMACOPHORE_FEATURES>
9
1 1 donor
1 2 acceptor
1 3 acceptor
1 4 acceptor
1 5 acceptor
1 6 cation
1 6 donor
3 2 3 12 anion
6 9 10 11 13 14 15 rings

> <PUBCHEM_HEAVY_ATOM_COUNT>
15

> <PUBCHEM_ATOM_DEF_STEREO_COUNT>
1

> <PUBCHEM_ATOM_UDEF_STEREO_COUNT>
0

> <PUBCHEM_BOND_DEF_STEREO_COUNT>
0

> <PUBCHEM_BOND_UDEF_STEREO_COUNT>
0

> <PUBCHEM_ISOTOPIC_ATOM_COUNT>
0

> <PUBCHEM_COMPONENT_COUNT>
1

> <PUBCHEM_CACTVS_TAUTO_COUNT>
9

> <PUBCHEM_CONFORMER_ID>
0001E3DF00000001

> <PUBCHEM_MMFF94_ENERGY>
22.463

> <PUBCHEM_FEATURE_SELFOVERLAP>
45.737

> <PUBCHEM_SHAPE_FINGERPRINT>
11471102 22 17894917308364597704
12251169 10 18333168366603610499
12491281 212 18262245529006228458
12696612 119 18334860472201955348
15209294 21 18200859735025058768
15309172 13 18186799192786835694
15490181 8 18337964479448027630
15775835 57 18272935994410801065
16945 1 18333734602275695550
200 152 18340471353512123391
20510252 161 17979081809625160522
21524375 3 18342459282892445270
22802520 49 15337741282553994473
23402539 116 17703216416795921903
23557571 272 16702299096088715159
2748010 2 17901079964212901638
305870 269 18338798918494696250
63268167 104 18337670819548442560
7364860 26 17986396581148512247

> <PUBCHEM_SHAPE_MULTIPOLES>
274.37
5.37
2.07
0.98
0.79
0.29
0.08
-1.37
0.68
-0.18
0.06
0.17
-0.17
-0.75

> <PUBCHEM_SHAPE_SELFOVERLAP>
573.414

> <PUBCHEM_SHAPE_VOLUME>
153.7

> <PUBCHEM_COORDINATE_TYPE>
2
5
10

$$$$
