107758
  -OEChem-06112215543D

 44 44  0     1  0  0  0  0  0999 V2000
   -2.8408   -2.2508   -0.1136 P   0  0  0  0  0  0  0  0  0  0  0  0
    1.0358   -3.4753    0.4389 P   0  0  0  0  0  0  0  0  0  0  0  0
   -2.6700    3.2512    0.1502 P   0  0  0  0  0  0  0  0  0  0  0  0
    4.0614    1.4271    0.1792 P   0  0  0  0  0  0  0  0  0  0  0  0
   -2.2389   -0.8608    0.4399 O   0  0  0  0  0  0  0  0  0  0  0  0
    0.1184   -2.3739   -0.3043 O   0  0  0  0  0  0  0  0  0  0  0  0
   -2.1655    1.8628   -0.4967 O   0  0  0  0  0  0  0  0  0  0  0  0
    2.6220    1.7300   -0.4854 O   0  0  0  0  0  0  0  0  0  0  0  0
    1.3747   -0.3855   -1.8082 O   0  0  0  0  0  0  0  0  0  0  0  0
    0.2911    3.1804    0.2533 O   0  0  0  0  0  0  0  0  0  0  0  0
   -4.3760   -2.1929    0.3911 O   0  0  0  0  0  0  0  0  0  0  0  0
   -2.9644   -2.0119   -1.7082 O   0  0  0  0  0  0  0  0  0  0  0  0
    0.4345   -4.8693   -0.1179 O   0  0  0  0  0  0  0  0  0  0  0  0
    2.4632   -3.3595   -0.3123 O   0  0  0  0  0  0  0  0  0  0  0  0
   -4.2188    3.3093   -0.3112 O   0  0  0  0  0  0  0  0  0  0  0  0
   -2.7652    2.9296    1.7322 O   0  0  0  0  0  0  0  0  0  0  0  0
    4.5147    0.0658   -0.5667 O   0  0  0  0  0  0  0  0  0  0  0  0
    5.0305    2.5472   -0.4699 O   0  0  0  0  0  0  0  0  0  0  0  0
   -2.0855   -3.4819    0.2942 O   0  0  0  0  0  0  0  0  0  0  0  0
    1.0863   -3.3590    1.9343 O   0  0  0  0  0  0  0  0  0  0  0  0
   -1.8551    4.4584   -0.2112 O   0  0  0  0  0  0  0  0  0  0  0  0
    4.0707    1.3616    1.6786 O   0  0  0  0  0  0  0  0  0  0  0  0
   -1.1188   -0.2924   -0.2445 C   0  0  0  0  0  0  0  0  0  0  0  0
    0.1531   -1.0317    0.1779 C   0  0  2  0  0  0  0  0  0  0  0  0
   -1.0626    1.1937    0.1219 C   0  0  1  0  0  0  0  0  0  0  0  0
    1.4726    1.1013    0.0807 C   0  0  0  0  0  0  0  0  0  0  0  0
    1.4081   -0.3559   -0.3778 C   0  0  2  0  0  0  0  0  0  0  0  0
    0.2244    1.8823   -0.3443 C   0  0  2  0  0  0  0  0  0  0  0  0
   -1.2943   -0.3908   -1.3204 H   0  0  0  0  0  0  0  0  0  0  0  0
    0.1935   -1.0584    1.2738 H   0  0  0  0  0  0  0  0  0  0  0  0
   -1.1635    1.2837    1.2097 H   0  0  0  0  0  0  0  0  0  0  0  0
    1.5615    1.1441    1.1734 H   0  0  0  0  0  0  0  0  0  0  0  0
    2.3040   -0.8968   -0.0718 H   0  0  0  0  0  0  0  0  0  0  0  0
    0.2099    2.0603   -1.4252 H   0  0  0  0  0  0  0  0  0  0  0  0
    0.5913    0.0865   -2.1300 H   0  0  0  0  0  0  0  0  0  0  0  0
    0.2961    3.0683    1.2192 H   0  0  0  0  0  0  0  0  0  0  0  0
   -4.9486   -2.9784    0.2596 H   0  0  0  0  0  0  0  0  0  0  0  0
   -3.2596   -2.7539   -2.2777 H   0  0  0  0  0  0  0  0  0  0  0  0
    0.7652   -5.7127    0.2583 H   0  0  0  0  0  0  0  0  0  0  0  0
    3.2156   -3.8983    0.0128 H   0  0  0  0  0  0  0  0  0  0  0  0
   -4.7410    4.1173   -0.1196 H   0  0  0  0  0  0  0  0  0  0  0  0
   -3.0013    3.6537    2.3503 H   0  0  0  0  0  0  0  0  0  0  0  0
    5.3303   -0.3900   -0.2681 H   0  0  0  0  0  0  0  0  0  0  0  0
    5.9621    2.6013   -0.1678 H   0  0  0  0  0  0  0  0  0  0  0  0
  1  5  1  0  0  0  0
  1 11  1  0  0  0  0
  1 12  1  0  0  0  0
  1 19  2  0  0  0  0
  2  6  1  0  0  0  0
  2 13  1  0  0  0  0
  2 14  1  0  0  0  0
  2 20  2  0  0  0  0
  3  7  1  0  0  0  0
  3 15  1  0  0  0  0
  3 16  1  0  0  0  0
  3 21  2  0  0  0  0
  4  8  1  0  0  0  0
  4 17  1  0  0  0  0
  4 18  1  0  0  0  0
  4 22  2  0  0  0  0
  5 23  1  0  0  0  0
  6 24  1  0  0  0  0
  7 25  1  0  0  0  0
  8 26  1  0  0  0  0
  9 27  1  0  0  0  0
  9 35  1  0  0  0  0
 10 28  1  0  0  0  0
 10 36  1  0  0  0  0
 11 37  1  0  0  0  0
 12 38  1  0  0  0  0
 13 39  1  0  0  0  0
 14 40  1  0  0  0  0
 15 41  1  0  0  0  0
 16 42  1  0  0  0  0
 17 43  1  0  0  0  0
 18 44  1  0  0  0  0
 23 24  1  0  0  0  0
 23 25  1  0  0  0  0
 23 29  1  0  0  0  0
 24 27  1  0  0  0  0
 24 30  1  0  0  0  0
 25 28  1  0  0  0  0
 25 31  1  0  0  0  0
 26 27  1  0  0  0  0
 26 28  1  0  0  0  0
 26 32  1  0  0  0  0
 27 33  1  0  0  0  0
 28 34  1  0  0  0  0
M  END
> <PUBCHEM_COMPOUND_CID>
107758

> <PUBCHEM_CONFORMER_RMSD>
1

> <PUBCHEM_CONFORMER_DIVERSEORDER>
1
13
3
17
11
4
7
9
18
15
2
19
6
5
16
8
10
20
14
12

> <PUBCHEM_MMFF94_PARTIAL_CHARGES>
38
1 1.51
10 -0.68
11 -0.77
12 -0.77
13 -0.77
14 -0.77
15 -0.77
16 -0.77
17 -0.77
18 -0.77
19 -0.7
2 1.51
20 -0.7
21 -0.7
22 -0.7
23 0.28
24 0.28
25 0.28
26 0.28
27 0.28
28 0.28
3 1.51
35 0.4
36 0.4
37 0.5
38 0.5
39 0.5
4 1.51
40 0.5
41 0.5
42 0.5
43 0.5
44 0.5
5 -0.55
6 -0.55
7 -0.55
8 -0.55
9 -0.68

> <PUBCHEM_EFFECTIVE_ROTOR_COUNT>
9.2

> <PUBCHEM_PHARMACOPHORE_FEATURES>
21
1 10 acceptor
1 10 donor
1 11 acceptor
1 12 acceptor
1 13 acceptor
1 14 acceptor
1 15 acceptor
1 16 acceptor
1 17 acceptor
1 18 acceptor
1 19 acceptor
1 20 acceptor
1 21 acceptor
1 22 acceptor
1 9 acceptor
1 9 donor
4 1 11 12 19 anion
4 2 13 14 20 anion
4 3 15 16 21 anion
4 4 17 18 22 anion
6 23 24 25 26 27 28 rings

> <PUBCHEM_HEAVY_ATOM_COUNT>
28

> <PUBCHEM_ATOM_DEF_STEREO_COUNT>
4

> <PUBCHEM_ATOM_UDEF_STEREO_COUNT>
0

> <PUBCHEM_BOND_DEF_STEREO_COUNT>
0

> <PUBCHEM_BOND_UDEF_STEREO_COUNT>
0

> <PUBCHEM_ISOTOPIC_ATOM_COUNT>
0

> <PUBCHEM_COMPONENT_COUNT>
1

> <PUBCHEM_CACTVS_TAUTO_COUNT>
1

> <PUBCHEM_CONFORMER_ID>
0001A4EE00000001

> <PUBCHEM_MMFF94_ENERGY>
-60.0562

> <PUBCHEM_FEATURE_SELFOVERLAP>
106.761

> <PUBCHEM_SHAPE_FINGERPRINT>
10006869 2 18341332189775881123
10906281 52 17908446966485243748
10930396 42 17406226352050121160
1100329 8 18049441440088190962
12553582 1 17978790443623512780
12788726 201 18119525681595391016
12930653 34 18410573976577366868
13140716 1 18339357457838230768
138480 1 17185033865125907412
13911987 19 18118959445432696103
14022347 108 18049175659074369718
14178342 30 18409441467148632288
14251757 5 17975702997940652292
14790565 3 18265342891795696437
15927050 60 18268148656311274271
16752209 62 18336825407161168684
16945 1 18123187072152654804
19591789 44 18410859862955235702
20028762 73 17480307102759360870
20510252 161 18270120239869559384
20600515 1 17837787981112570756
21421861 104 18334014956535182171
23402539 116 18055353797277650654
23419403 2 16534743316599519103
23557571 272 18200042848787392916
23558518 356 18333736814247260362
23559900 14 18199474269091422836
266924 87 18410567405478013799
283562 15 18339078310459500841
3027735 51 18411980295183912491
3084891 72 18194115446121416166
3178227 256 17902804294999224691
469060 322 18265351658187587953
59755656 215 18410577305367438950
6004065 56 17909261730851771079
7226269 152 18120363526514026496
81228 2 18125745592581754273

> <PUBCHEM_SHAPE_MULTIPOLES>
485.98
7.01
6.56
1.13
3.92
2.16
-0.17
-4.27
-0.06
-3.33
-0.86
0.14
0.21
-0.5

> <PUBCHEM_SHAPE_SELFOVERLAP>
933.78

> <PUBCHEM_SHAPE_VOLUME>
296.6

> <PUBCHEM_COORDINATE_TYPE>
2
5
10

$$$$
