6858181
  -OEChem-06112217113D

 47 49  0     1  0  0  0  0  0999 V2000
    4.7025   -3.1090   -1.4262 S   0  0  0  0  0  0  0  0  0  0  0  0
    3.5847   -1.6635   -0.7673 P   0  0  1  0  0  0  0  0  0  0  0  0
    3.7488    0.7122    0.9884 P   0  0  2  0  0  0  0  0  0  0  0  0
    2.6674    3.2283   -0.1140 P   0  0  0  0  0  0  0  0  0  0  0  0
   -0.3875   -1.7988    0.9456 O   0  0  0  0  0  0  0  0  0  0  0  0
   -3.3074   -3.1048   -0.6942 O   0  0  0  0  0  0  0  0  0  0  0  0
   -1.7039   -4.5493    0.9574 O   0  0  0  0  0  0  0  0  0  0  0  0
    2.2760   -2.0846    0.0949 O   0  0  0  0  0  0  0  0  0  0  0  0
    4.3120   -0.5539    0.1607 O   0  0  0  0  0  0  0  0  0  0  0  0
    2.9170   -0.7413   -1.9246 O   0  0  0  0  0  0  0  0  0  0  0  0
    3.2238    1.7123   -0.1665 O   0  0  0  0  0  0  0  0  0  0  0  0
    5.0887    1.4455    1.5189 O   0  0  0  0  0  0  0  0  0  0  0  0
    2.7390    0.3959    2.0521 O   0  0  0  0  0  0  0  0  0  0  0  0
    1.2836    3.0953    0.7105 O   0  0  0  0  0  0  0  0  0  0  0  0
    2.1821    3.5105   -1.6294 O   0  0  0  0  0  0  0  0  0  0  0  0
    3.6440    4.2247    0.4379 O   0  0  0  0  0  0  0  0  0  0  0  0
   -2.0184   -0.3034    0.0890 N   0  0  0  0  0  0  0  0  0  0  0  0
   -1.6463    1.7158   -0.7844 N   0  0  0  0  0  0  0  0  0  0  0  0
   -4.3449   -0.0503    0.7411 N   0  0  0  0  0  0  0  0  0  0  0  0
   -5.1877    2.1706    0.1813 N   0  0  0  0  0  0  0  0  0  0  0  0
   -3.8284    3.8312   -0.8778 N   0  0  0  0  0  0  0  0  0  0  0  0
   -1.9545   -2.7146   -0.5757 C   0  0  2  0  0  0  0  0  0  0  0  0
   -1.0537   -3.8345   -0.0934 C   0  0  1  0  0  0  0  0  0  0  0  0
   -1.7575   -1.6756    0.5176 C   0  0  1  0  0  0  0  0  0  0  0  0
    0.1304   -3.0705    0.4908 C   0  0  1  0  0  0  0  0  0  0  0  0
    1.2273   -2.8044   -0.5306 C   0  0  0  0  0  0  0  0  0  0  0  0
   -3.1933    0.3852    0.2086 C   0  0  0  0  0  0  0  0  0  0  0  0
   -1.1204    0.5396   -0.5132 C   0  0  0  0  0  0  0  0  0  0  0  0
   -2.9416    1.6331   -0.3387 C   0  0  0  0  0  0  0  0  0  0  0  0
   -3.9943    2.5427   -0.3411 C   0  0  0  0  0  0  0  0  0  0  0  0
   -5.2873    0.9156    0.6826 C   0  0  0  0  0  0  0  0  0  0  0  0
   -1.6059   -2.3457   -1.5479 H   0  0  0  0  0  0  0  0  0  0  0  0
   -0.7845   -4.5550   -0.8709 H   0  0  0  0  0  0  0  0  0  0  0  0
   -2.3987   -1.8646    1.3874 H   0  0  0  0  0  0  0  0  0  0  0  0
    0.5517   -3.5710    1.3700 H   0  0  0  0  0  0  0  0  0  0  0  0
    0.8467   -2.2048   -1.3634 H   0  0  0  0  0  0  0  0  0  0  0  0
    1.6166   -3.7493   -0.9216 H   0  0  0  0  0  0  0  0  0  0  0  0
   -3.8206   -2.3166   -0.9404 H   0  0  0  0  0  0  0  0  0  0  0  0
   -2.5163   -4.9330    0.5851 H   0  0  0  0  0  0  0  0  0  0  0  0
   -0.1025    0.2476   -0.7332 H   0  0  0  0  0  0  0  0  0  0  0  0
   -6.2565    0.6517    1.0922 H   0  0  0  0  0  0  0  0  0  0  0  0
   -4.6084    4.4742   -0.8678 H   0  0  0  0  0  0  0  0  0  0  0  0
   -2.9388    4.1114   -1.2680 H   0  0  0  0  0  0  0  0  0  0  0  0
    2.3415    0.0072   -1.6580 H   0  0  0  0  0  0  0  0  0  0  0  0
    5.5562    1.0746    2.2975 H   0  0  0  0  0  0  0  0  0  0  0  0
    0.8007    3.9108    0.9633 H   0  0  0  0  0  0  0  0  0  0  0  0
    1.8892    4.4142   -1.8740 H   0  0  0  0  0  0  0  0  0  0  0  0
  1  2  2  0  0  0  0
  2  8  1  0  0  0  0
  2  9  1  0  0  0  0
  2 10  1  0  0  0  0
  3  9  1  0  0  0  0
  3 11  1  0  0  0  0
  3 12  1  0  0  0  0
  3 13  2  0  0  0  0
  4 11  1  0  0  0  0
  4 14  1  0  0  0  0
  4 15  1  0  0  0  0
  4 16  2  0  0  0  0
  5 24  1  0  0  0  0
  5 25  1  0  0  0  0
  6 22  1  0  0  0  0
  6 38  1  0  0  0  0
  7 23  1  0  0  0  0
  7 39  1  0  0  0  0
  8 26  1  0  0  0  0
 10 44  1  0  0  0  0
 12 45  1  0  0  0  0
 14 46  1  0  0  0  0
 15 47  1  0  0  0  0
 17 24  1  0  0  0  0
 17 27  1  0  0  0  0
 17 28  1  0  0  0  0
 18 28  2  0  0  0  0
 18 29  1  0  0  0  0
 19 27  2  0  0  0  0
 19 31  1  0  0  0  0
 20 30  1  0  0  0  0
 20 31  2  0  0  0  0
 21 30  1  0  0  0  0
 21 42  1  0  0  0  0
 21 43  1  0  0  0  0
 22 23  1  0  0  0  0
 22 24  1  0  0  0  0
 22 32  1  0  0  0  0
 23 25  1  0  0  0  0
 23 33  1  0  0  0  0
 24 34  1  0  0  0  0
 25 26  1  0  0  0  0
 25 35  1  0  0  0  0
 26 36  1  0  0  0  0
 26 37  1  0  0  0  0
 27 29  1  0  0  0  0
 28 40  1  0  0  0  0
 29 30  2  0  0  0  0
 31 41  1  0  0  0  0
M  END
> <PUBCHEM_COMPOUND_CID>
6858181

> <PUBCHEM_CONFORMER_RMSD>
1.2

> <PUBCHEM_CONFORMER_DIVERSEORDER>
2
187
32
57
230
40
377
360
234
368
295
73
257
333
362
39
62
386
71
325
106
58
222
155
136
91
99
306
88
390
216
19
132
286
300
193
340
79
98
165
8
343
101
164
87
123
158
350
221
48
64
376
76
114
238
168
403
140
347
348
318
112
387
37
327
111
176
175
320
310
29
283
15
105
270
100
42
329
392
151
85
166
143
399
34
277
156
179
299
182
292
243
197
279
20
192
311
104
323
80
206
30
240
232
388
90
1
95
205
225
204
17
108
338
186
36
391
13
24
254
352
288
298
212
113
133
289
249
93
354
178
130
25
43
331
138
248
50
229
328
280
210
402
274
284
41
96
194
301
33
253
188
181
271
319
393
396
128
382
149
5
267
276
199
77
144
115
146
141
56
321
127
67
359
22
81
336
129
200
401
345
54
65
134
217
45
27
251
302
385
92
372
198
337
366
241
370
378
307
374
191
38
285
287
259
68
196
398
246
255
341
16
60
75
304
14
264
211
315
110
405
297
55
218
6
273
26
150
220
214
224
326
260
7
11
135
351
185
201
250
363
203
236
258
183
61
335
383
139
174
379
97
293
70
167
346
244
282
404
384
3
247
89
78
330
406
278
219
173
66
117
365
147
316
21
152
290
281
317
102
172
367
228
163
357
313
324
35
63
137
47
381
109
59
380
103
369
215
373
308
4
126
9
239
122
72
18
349
389
46
213
161
116
23
131
235
245
28
169
148
233
261
49
231
86
356
74
31
242
237
305
209
124
170
355
296
262
303
256
12
265
177
125
160
263
120
252
190
195
154
269
339
10
361
44
322
52
162
400
275
223
84
159
309
184
227
226
268
394
342
189
266
107
332
397
202
312
53
208
157
145
94
180
334
153
344
118
272
82
69
171
364
294
119
142
291
375
51
83
207
353
121
395
358
371
314
407

> <PUBCHEM_MMFF94_PARTIAL_CHARGES>
41
1 -0.68
10 -0.77
11 -0.54
12 -0.77
13 -0.7
14 -0.77
15 -0.77
16 -0.7
17 0.05
18 -0.57
19 -0.57
2 1.49
20 -0.62
21 -0.9
22 0.28
23 0.28
24 0.54
25 0.28
26 0.28
27 0.11
28 0.04
29 0.23
3 1.51
30 0.41
31 0.47
38 0.4
39 0.4
4 1.51
40 0.15
41 0.15
42 0.4
43 0.4
44 0.5
45 0.5
46 0.5
47 0.5
5 -0.56
6 -0.68
7 -0.68
8 -0.55
9 -0.54

> <PUBCHEM_EFFECTIVE_ROTOR_COUNT>
9

> <PUBCHEM_PHARMACOPHORE_FEATURES>
20
1 10 acceptor
1 12 acceptor
1 13 acceptor
1 14 acceptor
1 15 acceptor
1 16 acceptor
1 21 cation
1 21 donor
1 5 acceptor
1 6 acceptor
1 6 donor
1 7 acceptor
1 7 donor
3 17 18 28 cation
3 17 19 27 cation
3 19 20 31 cation
4 4 14 15 16 anion
5 17 18 27 28 29 rings
5 5 22 23 24 25 rings
6 19 20 27 29 30 31 rings

> <PUBCHEM_HEAVY_ATOM_COUNT>
31

> <PUBCHEM_ATOM_DEF_STEREO_COUNT>
4

> <PUBCHEM_ATOM_UDEF_STEREO_COUNT>
0

> <PUBCHEM_BOND_DEF_STEREO_COUNT>
0

> <PUBCHEM_BOND_UDEF_STEREO_COUNT>
0

> <PUBCHEM_ISOTOPIC_ATOM_COUNT>
0

> <PUBCHEM_COMPONENT_COUNT>
1

> <PUBCHEM_CACTVS_TAUTO_COUNT>
6

> <PUBCHEM_CONFORMER_ID>
0068A5C500000002

> <PUBCHEM_MMFF94_ENERGY>
-9.573

> <PUBCHEM_FEATURE_SELFOVERLAP>
102.168

> <PUBCHEM_SHAPE_FINGERPRINT>
10616163 171 17977103788375596396
10864689 126 17978792311612345172
1100329 8 18411142406919899758
11513181 2 18129106799944715438
12633257 1 18335689581579708368
12769317 202 18051407371025798731
12788726 201 17979353389244920059
12978246 48 18408884044391210553
13402501 40 18266463105407971270
13642711 20 17978497651286613317
14251764 38 18340482395524874870
14790565 3 18411703162972928515
17093844 170 18340762629746731992
19591789 44 18409733958922068441
19930381 70 18121780517634287217
21133410 127 18187645872597067524
23227448 37 18413387635734478031
23558518 356 18044372970514047624
23559900 14 18343026575353208622
3298306 158 18263925428297247957
338550 245 18408044034723985733
5081480 168 17772223888680658806
508706 21 18340486785118737894
532947 4 18267578014456826941
53794403 172 18337397127058267044
550186 83 17460030691562528384
5776283 40 18263666077108633460
6036956 94 17324923050544172181
653340 110 17692804200801037960
7808743 9 18335425711726379614

> <PUBCHEM_SHAPE_MULTIPOLES>
558.03
10.55
6.34
1.28
2.18
0.03
-0.02
5.11
0.01
-1.65
0.49
-1.26
0.15
2.1

> <PUBCHEM_SHAPE_SELFOVERLAP>
1124.489

> <PUBCHEM_SHAPE_VOLUME>
330.7

> <PUBCHEM_COORDINATE_TYPE>
2
5
10

$$$$
