131704306
  -OEChem-06112215543D

 53 52  0     1  0  0  0  0  0999 V2000
    4.1673    1.5094    2.1102 O   0  0  0  0  0  0  0  0  0  0  0  0
    6.0461    2.0891   -1.6994 O   0  0  0  0  0  0  0  0  0  0  0  0
    5.4428   -1.1638   -0.7153 O   0  0  0  0  0  0  0  0  0  0  0  0
   -4.5682    2.6786   -2.0627 O   0  0  0  0  0  0  0  0  0  0  0  0
   -5.2316    3.1555    0.0641 O   0  0  0  0  0  0  0  0  0  0  0  0
   -1.0520   -3.1801   -0.6327 C   0  0  2  0  0  0  0  0  0  0  0  0
   -0.0821   -1.9985   -0.8587 C   0  0  0  0  0  0  0  0  0  0  0  0
    0.7962   -1.6268    0.3408 C   0  0  0  0  0  0  0  0  0  0  0  0
    1.6706   -0.4087    0.0265 C   0  0  0  0  0  0  0  0  0  0  0  0
    2.5718   -0.0502    1.2152 C   0  0  0  0  0  0  0  0  0  0  0  0
    3.4356    1.1869    0.9250 C   0  0  2  0  0  0  0  0  0  0  0  0
   -2.0890   -2.8523    0.4652 C   0  0  0  0  0  0  0  0  0  0  0  0
    4.4343    1.0066   -0.2367 C   0  0  1  0  0  0  0  0  0  0  0  0
   -0.2998   -4.4821   -0.3394 C   0  0  0  0  0  0  0  0  0  0  0  0
   -2.9028   -1.5966    0.2077 C   0  0  0  0  0  0  0  0  0  0  0  0
    5.2535    2.2694   -0.5293 C   0  0  0  0  0  0  0  0  0  0  0  0
    5.3751   -0.1673   -0.0027 C   0  0  0  0  0  0  0  0  0  0  0  0
   -3.7689   -1.6305   -1.0262 C   0  0  0  0  0  0  0  0  0  0  0  0
   -2.9076   -0.5010    0.9943 C   0  0  0  0  0  0  0  0  0  0  0  0
   -3.6756    0.7240    0.8087 C   0  0  0  0  0  0  0  0  0  0  0  0
   -4.1672    1.3303    2.0939 C   0  0  0  0  0  0  0  0  0  0  0  0
   -3.8303    1.2471   -0.4217 C   0  0  0  0  0  0  0  0  0  0  0  0
   -4.6183    2.4609   -0.7268 C   0  0  0  0  0  0  0  0  0  0  0  0
   -1.5895   -3.3354   -1.5780 H   0  0  0  0  0  0  0  0  0  0  0  0
    0.5741   -2.2532   -1.7019 H   0  0  0  0  0  0  0  0  0  0  0  0
   -0.6435   -1.1149   -1.1856 H   0  0  0  0  0  0  0  0  0  0  0  0
    0.1783   -1.3990    1.2150 H   0  0  0  0  0  0  0  0  0  0  0  0
    1.4407   -2.4716    0.6082 H   0  0  0  0  0  0  0  0  0  0  0  0
    1.0346    0.4484   -0.2254 H   0  0  0  0  0  0  0  0  0  0  0  0
    2.2759   -0.6397   -0.8559 H   0  0  0  0  0  0  0  0  0  0  0  0
    3.2043   -0.9032    1.4897 H   0  0  0  0  0  0  0  0  0  0  0  0
    1.9504    0.1480    2.0982 H   0  0  0  0  0  0  0  0  0  0  0  0
    2.7843    2.0417    0.7057 H   0  0  0  0  0  0  0  0  0  0  0  0
   -1.5910   -2.7824    1.4401 H   0  0  0  0  0  0  0  0  0  0  0  0
   -2.7860   -3.6958    0.5589 H   0  0  0  0  0  0  0  0  0  0  0  0
    3.8836    0.7711   -1.1556 H   0  0  0  0  0  0  0  0  0  0  0  0
    0.2057   -4.4481    0.6307 H   0  0  0  0  0  0  0  0  0  0  0  0
   -0.9965   -5.3270   -0.3188 H   0  0  0  0  0  0  0  0  0  0  0  0
    0.4491   -4.6844   -1.1119 H   0  0  0  0  0  0  0  0  0  0  0  0
    4.5911    3.1249   -0.6968 H   0  0  0  0  0  0  0  0  0  0  0  0
    5.9289    2.5038    0.3004 H   0  0  0  0  0  0  0  0  0  0  0  0
    3.5215    1.6793    2.8170 H   0  0  0  0  0  0  0  0  0  0  0  0
    6.0309   -0.0763    0.8812 H   0  0  0  0  0  0  0  0  0  0  0  0
   -3.2174   -1.2926   -1.9088 H   0  0  0  0  0  0  0  0  0  0  0  0
   -4.0750   -2.6655   -1.2256 H   0  0  0  0  0  0  0  0  0  0  0  0
   -4.7132   -1.0887   -0.9270 H   0  0  0  0  0  0  0  0  0  0  0  0
   -2.2788   -0.5192    1.8833 H   0  0  0  0  0  0  0  0  0  0  0  0
    6.5382    2.9159   -1.8398 H   0  0  0  0  0  0  0  0  0  0  0  0
   -5.2051    1.0339    2.2783 H   0  0  0  0  0  0  0  0  0  0  0  0
   -3.5713    1.0110    2.9567 H   0  0  0  0  0  0  0  0  0  0  0  0
   -4.1060    2.4223    2.0820 H   0  0  0  0  0  0  0  0  0  0  0  0
   -3.3381    0.8142   -1.2865 H   0  0  0  0  0  0  0  0  0  0  0  0
   -5.0825    3.4718   -2.3248 H   0  0  0  0  0  0  0  0  0  0  0  0
  1 11  1  0  0  0  0
  1 42  1  0  0  0  0
  2 16  1  0  0  0  0
  2 48  1  0  0  0  0
  3 17  2  0  0  0  0
  4 23  1  0  0  0  0
  4 53  1  0  0  0  0
  5 23  2  0  0  0  0
  6  7  1  0  0  0  0
  6 12  1  0  0  0  0
  6 14  1  0  0  0  0
  6 24  1  0  0  0  0
  7  8  1  0  0  0  0
  7 25  1  0  0  0  0
  7 26  1  0  0  0  0
  8  9  1  0  0  0  0
  8 27  1  0  0  0  0
  8 28  1  0  0  0  0
  9 10  1  0  0  0  0
  9 29  1  0  0  0  0
  9 30  1  0  0  0  0
 10 11  1  0  0  0  0
 10 31  1  0  0  0  0
 10 32  1  0  0  0  0
 11 13  1  0  0  0  0
 11 33  1  0  0  0  0
 12 15  1  0  0  0  0
 12 34  1  0  0  0  0
 12 35  1  0  0  0  0
 13 16  1  0  0  0  0
 13 17  1  0  0  0  0
 13 36  1  0  0  0  0
 14 37  1  0  0  0  0
 14 38  1  0  0  0  0
 14 39  1  0  0  0  0
 15 18  1  0  0  0  0
 15 19  2  0  0  0  0
 16 40  1  0  0  0  0
 16 41  1  0  0  0  0
 17 43  1  0  0  0  0
 18 44  1  0  0  0  0
 18 45  1  0  0  0  0
 18 46  1  0  0  0  0
 19 20  1  0  0  0  0
 19 47  1  0  0  0  0
 20 21  1  0  0  0  0
 20 22  2  0  0  0  0
 21 49  1  0  0  0  0
 21 50  1  0  0  0  0
 21 51  1  0  0  0  0
 22 23  1  0  0  0  0
 22 52  1  0  0  0  0
M  END
> <PUBCHEM_COMPOUND_CID>
131704306

> <PUBCHEM_CONFORMER_RMSD>
1

> <PUBCHEM_CONFORMER_DIVERSEORDER>
1
7
47
89
48
119
6
2
72
121
73
36
86
102
77
113
128
49
112
85
93
56
71
58
33
115
25
65
62
54
43
125
13
105
4
42
5
126
64
133
32
38
22
80
117
76
12
135
45
91
118
111
74
23
66
97
108
53
123
120
92
103
30
41
50
61
46
78
35
109
67
116
70
88
99
90
82
26
130
40
17
100
55
81
129
24
104
96
110
8
11
124
127
19
18
52
63
68
84
131
31
136
29
28
106
34
20
3
79
44
107
27
122
83
9
14
75
51
114
95
132
16
94
15
69
137
134
59
39
10
60
37
57
101
21
98
87

> <PUBCHEM_MMFF94_PARTIAL_CHARGES>
23
1 -0.68
11 0.28
12 0.14
13 0.06
15 -0.28
16 0.28
17 0.45
18 0.14
19 -0.15
2 -0.68
20 -0.14
21 0.14
22 -0.14
23 0.71
3 -0.57
4 -0.65
42 0.4
43 0.06
47 0.15
48 0.4
5 -0.57
52 0.15
53 0.5

> <PUBCHEM_EFFECTIVE_ROTOR_COUNT>
12

> <PUBCHEM_PHARMACOPHORE_FEATURES>
11
1 1 acceptor
1 1 donor
1 14 hydrophobe
1 18 hydrophobe
1 2 acceptor
1 2 donor
1 21 hydrophobe
1 3 acceptor
1 4 acceptor
1 5 acceptor
3 4 5 23 anion

> <PUBCHEM_HEAVY_ATOM_COUNT>
23

> <PUBCHEM_ATOM_DEF_STEREO_COUNT>
3

> <PUBCHEM_ATOM_UDEF_STEREO_COUNT>
0

> <PUBCHEM_BOND_DEF_STEREO_COUNT>
2

> <PUBCHEM_BOND_UDEF_STEREO_COUNT>
0

> <PUBCHEM_ISOTOPIC_ATOM_COUNT>
0

> <PUBCHEM_COMPONENT_COUNT>
1

> <PUBCHEM_CACTVS_TAUTO_COUNT>
10

> <PUBCHEM_CONFORMER_ID>
07D9A5F200000001

> <PUBCHEM_MMFF94_ENERGY>
46.8071

> <PUBCHEM_FEATURE_SELFOVERLAP>
55.879

> <PUBCHEM_SHAPE_FINGERPRINT>
10615611 76 17459484405744138388
10670039 82 18339366395633596668
11014199 57 17687746455528201486
12107183 9 18262507079957298858
13134695 92 17330555342144782815
13944108 23 17691689982830687181
14251757 5 18269846474496002616
14251764 30 12390643447648294725
14251764 75 18268436746086896753
14347329 18 18410006645979187792
14848178 96 18342454786045823099
15052358 14 18271536278076532886
15163728 17 18411136896882924039
15575132 122 18335135427845591527
17349148 13 12535082948514409446
17834072 32 18410290277097805657
21279426 13 18201166451598992590
21388113 180 18116988876252674901
23559900 14 18058443197461411458
6034566 193 18410297986997015025
633830 44 17821727282413146658
9981440 41 18410284809969104475

> <PUBCHEM_SHAPE_MULTIPOLES>
443.98
14.3
4.57
1.55
14.02
2.74
-0.21
-14.24
2.56
-4.32
1.36
-0.39
-1.07
0.29

> <PUBCHEM_SHAPE_SELFOVERLAP>
855.641

> <PUBCHEM_SHAPE_VOLUME>
269.3

> <PUBCHEM_COORDINATE_TYPE>
2
5
10

$$$$
