131704307
  -OEChem-06112215543D

 61 61  0     1  0  0  0  0  0999 V2000
    1.4706   -1.7956    0.5416 O   0  0  0  0  0  0  0  0  0  0  0  0
   -1.9550   -2.8094   -1.3595 O   0  0  0  0  0  0  0  0  0  0  0  0
    0.3541   -1.1959    2.4055 O   0  0  0  0  0  0  0  0  0  0  0  0
   -2.2220   -2.9754    1.8163 O   0  0  0  0  0  0  0  0  0  0  0  0
    6.4516    2.6183    1.0540 O   0  0  0  0  0  0  0  0  0  0  0  0
    4.2070    2.9960    1.3264 O   0  0  0  0  0  0  0  0  0  0  0  0
    5.0721    1.9482   -0.5674 N   0  0  0  0  0  0  0  0  0  0  0  0
    2.8507   -2.4987   -1.3277 C   0  0  2  0  0  0  0  0  0  0  0  0
    3.6319   -1.1743   -1.4240 C   0  0  0  0  0  0  0  0  0  0  0  0
    2.9599   -0.1460   -2.3452 C   0  0  0  0  0  0  0  0  0  0  0  0
    1.4760   -2.3022   -0.7729 C   0  0  0  0  0  0  0  0  0  0  0  0
    3.6224   -3.5022   -0.4674 C   0  0  0  0  0  0  0  0  0  0  0  0
   -0.9523   -1.5327    0.4180 C   0  0  2  0  0  0  0  0  0  0  0  0
    3.7609    1.1501   -2.4493 C   0  0  0  0  0  0  0  0  0  0  0  0
    0.3716   -2.6210   -1.4545 C   0  0  0  0  0  0  0  0  0  0  0  0
   -0.9346   -2.3799   -0.8253 C   0  0  0  0  0  0  0  0  0  0  0  0
    0.3238   -1.5154    1.2191 C   0  0  0  0  0  0  0  0  0  0  0  0
   -2.1382   -1.8632    1.2913 C   0  0  0  0  0  0  0  0  0  0  0  0
    3.9053    1.8045   -1.1015 C   0  0  0  0  0  0  0  0  0  0  0  0
   -3.2201   -0.8341    1.5262 C   0  0  0  0  0  0  0  0  0  0  0  0
   -3.4900    0.0818    0.5757 C   0  0  0  0  0  0  0  0  0  0  0  0
   -5.7469    3.2030   -0.1594 C   0  0  0  0  0  0  0  0  0  0  0  0
   -4.7454    2.0726   -0.2905 C   0  0  0  0  0  0  0  0  0  0  0  0
   -3.9090   -0.9603    2.8588 C   0  0  0  0  0  0  0  0  0  0  0  0
   -4.4688    1.1514    0.6561 C   0  0  0  0  0  0  0  0  0  0  0  0
   -6.8127    3.2345   -1.2605 C   0  0  0  0  0  0  0  0  0  0  0  0
   -3.9928    2.0462   -1.5985 C   0  0  0  0  0  0  0  0  0  0  0  0
   -7.7111    2.0063   -1.2712 C   0  0  0  0  0  0  0  0  0  0  0  0
    5.1419    2.5605    0.6620 C   0  0  0  0  0  0  0  0  0  0  0  0
    6.6988    3.2328    2.3237 C   0  0  0  0  0  0  0  0  0  0  0  0
    2.7853   -2.9221   -2.3393 H   0  0  0  0  0  0  0  0  0  0  0  0
    4.6400   -1.3818   -1.8060 H   0  0  0  0  0  0  0  0  0  0  0  0
    3.7622   -0.7532   -0.4193 H   0  0  0  0  0  0  0  0  0  0  0  0
    1.9568    0.0921   -1.9721 H   0  0  0  0  0  0  0  0  0  0  0  0
    2.8398   -0.5729   -3.3478 H   0  0  0  0  0  0  0  0  0  0  0  0
    3.0816   -4.4520   -0.3884 H   0  0  0  0  0  0  0  0  0  0  0  0
    4.6010   -3.7156   -0.9117 H   0  0  0  0  0  0  0  0  0  0  0  0
    3.7951   -3.1259    0.5473 H   0  0  0  0  0  0  0  0  0  0  0  0
   -1.0225   -0.4997    0.0584 H   0  0  0  0  0  0  0  0  0  0  0  0
    3.2382    1.8532   -3.1063 H   0  0  0  0  0  0  0  0  0  0  0  0
    4.7512    0.9564   -2.8754 H   0  0  0  0  0  0  0  0  0  0  0  0
    0.3968   -3.0464   -2.4503 H   0  0  0  0  0  0  0  0  0  0  0  0
    2.9741    2.1443   -0.6139 H   0  0  0  0  0  0  0  0  0  0  0  0
   -2.9659    0.0070   -0.3699 H   0  0  0  0  0  0  0  0  0  0  0  0
   -6.2446    3.1502    0.8171 H   0  0  0  0  0  0  0  0  0  0  0  0
   -5.1985    4.1534   -0.1715 H   0  0  0  0  0  0  0  0  0  0  0  0
   -4.5564   -1.8434    2.8656 H   0  0  0  0  0  0  0  0  0  0  0  0
   -4.5196   -0.0947    3.1226 H   0  0  0  0  0  0  0  0  0  0  0  0
   -3.1669   -1.0724    3.6573 H   0  0  0  0  0  0  0  0  0  0  0  0
   -5.0350    1.2263    1.5800 H   0  0  0  0  0  0  0  0  0  0  0  0
   -6.3511    3.3540   -2.2472 H   0  0  0  0  0  0  0  0  0  0  0  0
   -7.4401    4.1208   -1.1052 H   0  0  0  0  0  0  0  0  0  0  0  0
   -4.4777    1.3669   -2.3067 H   0  0  0  0  0  0  0  0  0  0  0  0
   -3.9723    3.0446   -2.0506 H   0  0  0  0  0  0  0  0  0  0  0  0
   -2.9411    1.7672   -1.4881 H   0  0  0  0  0  0  0  0  0  0  0  0
   -8.1962    1.8676   -0.2998 H   0  0  0  0  0  0  0  0  0  0  0  0
   -7.1476    1.0988   -1.5082 H   0  0  0  0  0  0  0  0  0  0  0  0
   -8.4944    2.1199   -2.0275 H   0  0  0  0  0  0  0  0  0  0  0  0
    7.7762    3.2104    2.5078 H   0  0  0  0  0  0  0  0  0  0  0  0
    6.1949    2.6749    3.1186 H   0  0  0  0  0  0  0  0  0  0  0  0
    6.3663    4.2751    2.3107 H   0  0  0  0  0  0  0  0  0  0  0  0
  1 11  1  0  0  0  0
  1 17  1  0  0  0  0
  2 16  2  0  0  0  0
  3 17  2  0  0  0  0
  4 18  2  0  0  0  0
  5 29  1  0  0  0  0
  5 30  1  0  0  0  0
  6 29  2  0  0  0  0
  7 19  2  0  0  0  0
  7 29  1  0  0  0  0
  8  9  1  0  0  0  0
  8 11  1  0  0  0  0
  8 12  1  0  0  0  0
  8 31  1  0  0  0  0
  9 10  1  0  0  0  0
  9 32  1  0  0  0  0
  9 33  1  0  0  0  0
 10 14  1  0  0  0  0
 10 34  1  0  0  0  0
 10 35  1  0  0  0  0
 11 15  2  0  0  0  0
 12 36  1  0  0  0  0
 12 37  1  0  0  0  0
 12 38  1  0  0  0  0
 13 16  1  0  0  0  0
 13 17  1  0  0  0  0
 13 18  1  0  0  0  0
 13 39  1  0  0  0  0
 14 19  1  0  0  0  0
 14 40  1  0  0  0  0
 14 41  1  0  0  0  0
 15 16  1  0  0  0  0
 15 42  1  0  0  0  0
 18 20  1  0  0  0  0
 19 43  1  0  0  0  0
 20 21  2  0  0  0  0
 20 24  1  0  0  0  0
 21 25  1  0  0  0  0
 21 44  1  0  0  0  0
 22 23  1  0  0  0  0
 22 26  1  0  0  0  0
 22 45  1  0  0  0  0
 22 46  1  0  0  0  0
 23 25  2  0  0  0  0
 23 27  1  0  0  0  0
 24 47  1  0  0  0  0
 24 48  1  0  0  0  0
 24 49  1  0  0  0  0
 25 50  1  0  0  0  0
 26 28  1  0  0  0  0
 26 51  1  0  0  0  0
 26 52  1  0  0  0  0
 27 53  1  0  0  0  0
 27 54  1  0  0  0  0
 27 55  1  0  0  0  0
 28 56  1  0  0  0  0
 28 57  1  0  0  0  0
 28 58  1  0  0  0  0
 30 59  1  0  0  0  0
 30 60  1  0  0  0  0
 30 61  1  0  0  0  0
M  END
> <PUBCHEM_COMPOUND_CID>
131704307

> <PUBCHEM_CONFORMER_RMSD>
1.2

> <PUBCHEM_CONFORMER_DIVERSEORDER>
4
31
84
125
161
184
187
24
172
104
76
192
6
27
146
94
185
8
80
23
151
114
158
28
123
29
150
90
57
152
189
71
160
52
164
47
44
162
177
163
42
87
132
169
19
75
5
165
174
191
115
157
183
106
78
2
117
61
108
166
138
178
112
59
147
118
11
82
64
86
188
153
127
22
128
110
101
145
149
99
13
41
140
36
89
155
91
154
175
190
186
35
70
63
68
18
37
83
179
17
38
173
48
182
40
93
26
171
176
20
180
43
79
168
144
62
67
7
85
141
137
107
46
156
113
148
14
116
103
135
121
55
159
98
167
45
97
58
66
181
3
100
124
102
16
56
21
96
120
130
122
65
69
77
142
12
92
129
143
10
105
133
131
73
74
15
88
134
111
136
81
54
170
126
25
139
119
30
50
51
60
39
95
9
34
32
109
53
72
1
49
33

> <PUBCHEM_MMFF94_PARTIAL_CHARGES>
29
1 -0.23
11 -0.06
13 0.18
14 0.06
15 -0.14
16 0.49
17 0.66
18 0.49
19 0.33
2 -0.57
20 -0.12
21 -0.15
22 0.14
23 -0.28
24 0.14
25 -0.15
27 0.14
29 0.93
3 -0.57
30 0.28
4 -0.57
42 0.15
43 0.06
44 0.15
5 -0.43
50 0.15
6 -0.57
7 -0.66
8 0.14

> <PUBCHEM_EFFECTIVE_ROTOR_COUNT>
12.4

> <PUBCHEM_PHARMACOPHORE_FEATURES>
13
1 12 hydrophobe
1 13 anion
1 2 acceptor
1 24 hydrophobe
1 27 hydrophobe
1 28 hydrophobe
1 3 acceptor
1 4 acceptor
1 6 acceptor
1 7 acceptor
1 7 donor
4 8 9 10 14 hydrophobe
6 1 11 13 15 16 17 rings

> <PUBCHEM_HEAVY_ATOM_COUNT>
30

> <PUBCHEM_ATOM_DEF_STEREO_COUNT>
1

> <PUBCHEM_ATOM_UDEF_STEREO_COUNT>
1

> <PUBCHEM_BOND_DEF_STEREO_COUNT>
3

> <PUBCHEM_BOND_UDEF_STEREO_COUNT>
0

> <PUBCHEM_ISOTOPIC_ATOM_COUNT>
0

> <PUBCHEM_COMPONENT_COUNT>
1

> <PUBCHEM_CACTVS_TAUTO_COUNT>
213

> <PUBCHEM_CONFORMER_ID>
07D9A5F300000004

> <PUBCHEM_MMFF94_ENERGY>
53.851

> <PUBCHEM_FEATURE_SELFOVERLAP>
66.018

> <PUBCHEM_SHAPE_FINGERPRINT>
11387372 6 11171283836282805501
11578080 2 18343295985666713766
117089 54 10953998357525177040
12422481 6 18186518826381049492
12633257 1 16516811558109556982
13383668 362 16733270045425938347
14725015 67 17753890515144005948
14932701 244 17057240257239062294
14950920 106 16371853044182563544
15082195 135 18199749133897310175
15669420 48 16128087965924035349
16120349 189 18340766069857612004
1768 210 17489591220182517600
19053607 189 18261119573017807892
19438510 23 18335130995117640485
21033648 29 17895487955189609239
21475661 188 17895492340077087831
22864921 267 8934707951697977981
23559900 14 18195545704855148802
23569914 2 18265307608613239417
3388396 114 17704081676692405472
4371632 12 17774996951099792041

> <PUBCHEM_SHAPE_MULTIPOLES>
577.19
16.92
5.32
2.61
9.18
1.2
-0.75
25.54
0.86
-3.58
-0.46
-1
0.11
6.21

> <PUBCHEM_SHAPE_SELFOVERLAP>
1159.424

> <PUBCHEM_SHAPE_VOLUME>
336.6

> <PUBCHEM_COORDINATE_TYPE>
2
5
10

$$$$
