5311309
  -OEChem-06112217093D

 50 51  0     1  0  0  0  0  0999 V2000
   -0.2520   -0.7308   -1.7994 O   0  0  0  0  0  0  0  0  0  0  0  0
   -1.9462   -3.6498    0.7920 O   0  0  0  0  0  0  0  0  0  0  0  0
   -4.0196   -3.1460    0.0450 O   0  0  0  0  0  0  0  0  0  0  0  0
   -0.9599   -1.2700    0.3517 N   0  0  0  0  0  0  0  0  0  0  0  0
    4.0889    0.2814   -0.1079 C   0  0  0  0  0  0  0  0  0  0  0  0
    3.0688    0.6731    0.9696 C   0  0  0  0  0  0  0  0  0  0  0  0
    3.8164   -1.1362   -0.6286 C   0  0  0  0  0  0  0  0  0  0  0  0
    1.3683   -0.8900   -0.0550 C   0  0  0  0  0  0  0  0  0  0  0  0
    1.6337    0.5211    0.4700 C   0  0  0  0  0  0  0  0  0  0  0  0
    2.3814   -1.2865   -1.1289 C   0  0  0  0  0  0  0  0  0  0  0  0
    5.5135    0.3929    0.4322 C   0  0  0  0  0  0  0  0  0  0  0  0
   -0.0195   -0.9564   -0.6146 C   0  0  0  0  0  0  0  0  0  0  0  0
    6.5278    0.0475   -0.6554 C   0  0  0  0  0  0  0  0  0  0  0  0
    5.7707    1.7941    0.9816 C   0  0  0  0  0  0  0  0  0  0  0  0
   -2.3743   -1.3731    0.0743 C   0  0  2  0  0  0  0  0  0  0  0  0
   -3.1854   -0.3931    0.9321 C   0  0  0  0  0  0  0  0  0  0  0  0
   -2.8721   -2.7937    0.2973 C   0  0  0  0  0  0  0  0  0  0  0  0
   -3.1355    1.0240    0.4139 C   0  0  0  0  0  0  0  0  0  0  0  0
   -2.1371    1.8756    0.8598 C   0  0  0  0  0  0  0  0  0  0  0  0
   -4.0891    1.4478   -0.4979 C   0  0  0  0  0  0  0  0  0  0  0  0
   -2.0913    3.1851    0.3814 C   0  0  0  0  0  0  0  0  0  0  0  0
   -4.0433    2.7572   -0.9764 C   0  0  0  0  0  0  0  0  0  0  0  0
   -3.0443    3.6258   -0.5367 C   0  0  0  0  0  0  0  0  0  0  0  0
    3.9712    0.9785   -0.9502 H   0  0  0  0  0  0  0  0  0  0  0  0
    3.1918    1.7176    1.2737 H   0  0  0  0  0  0  0  0  0  0  0  0
    3.2089    0.0547    1.8653 H   0  0  0  0  0  0  0  0  0  0  0  0
    4.0035   -1.8721    0.1637 H   0  0  0  0  0  0  0  0  0  0  0  0
    4.4775   -1.3863   -1.4645 H   0  0  0  0  0  0  0  0  0  0  0  0
    1.4583   -1.6032    0.7755 H   0  0  0  0  0  0  0  0  0  0  0  0
    1.4404    1.2609   -0.3182 H   0  0  0  0  0  0  0  0  0  0  0  0
    0.9432    0.7555    1.2887 H   0  0  0  0  0  0  0  0  0  0  0  0
    2.2091   -2.3234   -1.4430 H   0  0  0  0  0  0  0  0  0  0  0  0
    2.2572   -0.6661   -2.0263 H   0  0  0  0  0  0  0  0  0  0  0  0
    5.6556   -0.3175    1.2573 H   0  0  0  0  0  0  0  0  0  0  0  0
    6.5167   -1.0179   -0.9034 H   0  0  0  0  0  0  0  0  0  0  0  0
    7.5463    0.2720   -0.3184 H   0  0  0  0  0  0  0  0  0  0  0  0
    6.3487    0.6216   -1.5709 H   0  0  0  0  0  0  0  0  0  0  0  0
    5.4937    2.5686    0.2583 H   0  0  0  0  0  0  0  0  0  0  0  0
    6.8329    1.9270    1.2167 H   0  0  0  0  0  0  0  0  0  0  0  0
    5.2285    1.9747    1.9146 H   0  0  0  0  0  0  0  0  0  0  0  0
   -0.6527   -1.4655    1.3001 H   0  0  0  0  0  0  0  0  0  0  0  0
   -2.5343   -1.1717   -0.9924 H   0  0  0  0  0  0  0  0  0  0  0  0
   -4.2385   -0.7022    0.9789 H   0  0  0  0  0  0  0  0  0  0  0  0
   -2.8392   -0.4174    1.9747 H   0  0  0  0  0  0  0  0  0  0  0  0
   -1.3945    1.5442    1.5792 H   0  0  0  0  0  0  0  0  0  0  0  0
   -4.8694    0.7781   -0.8481 H   0  0  0  0  0  0  0  0  0  0  0  0
   -2.3103   -4.5522    0.9161 H   0  0  0  0  0  0  0  0  0  0  0  0
   -1.3140    3.8616    0.7246 H   0  0  0  0  0  0  0  0  0  0  0  0
   -4.7849    3.1003   -1.6919 H   0  0  0  0  0  0  0  0  0  0  0  0
   -3.0086    4.6453   -0.9093 H   0  0  0  0  0  0  0  0  0  0  0  0
  1 12  2  0  0  0  0
  2 17  1  0  0  0  0
  2 47  1  0  0  0  0
  3 17  2  0  0  0  0
  4 12  1  0  0  0  0
  4 15  1  0  0  0  0
  4 41  1  0  0  0  0
  5  6  1  0  0  0  0
  5  7  1  0  0  0  0
  5 11  1  0  0  0  0
  5 24  1  0  0  0  0
  6  9  1  0  0  0  0
  6 25  1  0  0  0  0
  6 26  1  0  0  0  0
  7 10  1  0  0  0  0
  7 27  1  0  0  0  0
  7 28  1  0  0  0  0
  8  9  1  0  0  0  0
  8 10  1  0  0  0  0
  8 12  1  0  0  0  0
  8 29  1  0  0  0  0
  9 30  1  0  0  0  0
  9 31  1  0  0  0  0
 10 32  1  0  0  0  0
 10 33  1  0  0  0  0
 11 13  1  0  0  0  0
 11 14  1  0  0  0  0
 11 34  1  0  0  0  0
 13 35  1  0  0  0  0
 13 36  1  0  0  0  0
 13 37  1  0  0  0  0
 14 38  1  0  0  0  0
 14 39  1  0  0  0  0
 14 40  1  0  0  0  0
 15 16  1  0  0  0  0
 15 17  1  0  0  0  0
 15 42  1  0  0  0  0
 16 18  1  0  0  0  0
 16 43  1  0  0  0  0
 16 44  1  0  0  0  0
 18 19  2  0  0  0  0
 18 20  1  0  0  0  0
 19 21  1  0  0  0  0
 19 45  1  0  0  0  0
 20 22  2  0  0  0  0
 20 46  1  0  0  0  0
 21 23  2  0  0  0  0
 21 48  1  0  0  0  0
 22 23  1  0  0  0  0
 22 49  1  0  0  0  0
 23 50  1  0  0  0  0
M  END
> <PUBCHEM_COMPOUND_CID>
5311309

> <PUBCHEM_CONFORMER_RMSD>
0.8

> <PUBCHEM_CONFORMER_DIVERSEORDER>
1
170
114
4
40
81
109
60
204
59
169
98
117
22
201
130
149
10
74
71
108
48
175
185
26
5
79
207
46
200
101
89
159
143
132
126
183
124
50
16
65
29
198
80
197
192
131
155
55
196
53
43
189
19
123
105
160
20
141
206
150
62
168
199
11
103
188
174
78
13
88
133
113
127
140
84
187
135
24
191
37
138
202
161
75
190
82
39
156
193
194
154
158
180
137
30
25
102
157
129
35
2
3
115
14
125
148
164
73
94
9
163
136
134
52
203
61
181
162
69
54
153
184
83
36
142
64
72
42
177
128
70
151
34
27
147
17
67
110
122
166
18
144
76
172
66
44
96
112
90
99
7
107
32
68
93
116
58
21
45
146
91
119
186
179
145
51
97
111
85
167
139
178
95
12
77
57
104
152
118
86
8
92
28
41
87
56
171
47
195
23
173
205
165
63
38
182
31
100
6
176
15
121
106
120
33
49

> <PUBCHEM_MMFF94_PARTIAL_CHARGES>
22
1 -0.57
12 0.57
15 0.36
16 0.14
17 0.66
18 -0.14
19 -0.15
2 -0.65
20 -0.15
21 -0.15
22 -0.15
23 -0.15
3 -0.57
4 -0.73
41 0.37
45 0.15
46 0.15
47 0.5
48 0.15
49 0.15
50 0.15
8 0.06

> <PUBCHEM_EFFECTIVE_ROTOR_COUNT>
8.2

> <PUBCHEM_PHARMACOPHORE_FEATURES>
8
1 1 acceptor
1 2 acceptor
1 3 acceptor
1 4 donor
3 11 13 14 hydrophobe
3 2 3 17 anion
6 18 19 20 21 22 23 rings
6 5 6 7 8 9 10 rings

> <PUBCHEM_HEAVY_ATOM_COUNT>
23

> <PUBCHEM_ATOM_DEF_STEREO_COUNT>
1

> <PUBCHEM_ATOM_UDEF_STEREO_COUNT>
0

> <PUBCHEM_BOND_DEF_STEREO_COUNT>
0

> <PUBCHEM_BOND_UDEF_STEREO_COUNT>
0

> <PUBCHEM_ISOTOPIC_ATOM_COUNT>
0

> <PUBCHEM_COMPONENT_COUNT>
1

> <PUBCHEM_CACTVS_TAUTO_COUNT>
2

> <PUBCHEM_CONFORMER_ID>
00510B4D00000001

> <PUBCHEM_MMFF94_ENERGY>
48.3728

> <PUBCHEM_FEATURE_SELFOVERLAP>
40.657

> <PUBCHEM_SHAPE_FINGERPRINT>
10319926 262 18339630184531257290
10366900 7 17917419896001069585
10411042 1 18049163564616126691
10670039 82 18194699266086132244
12107183 9 17972868164975204354
12596602 18 17022912280217551720
12788726 201 18260820553421238499
12930653 34 18411420609469517830
13402501 40 18272931613665744825
13583140 156 18131069342247895942
13994607 96 18343013393982831749
14178342 30 18259711107307298318
14251764 75 17766846022490852673
14508225 48 18124585634333477319
14739800 52 18337372869604939768
15463212 79 18114460067990233947
17349148 13 14045734899003063990
17844677 252 18337396049754263168
20645477 56 18340496590365343059
21033648 29 18263651658239054741
21279426 13 18272098137430105318
2132832 1 17969507193698191501
22182313 1 17846514616556716574
22956985 138 16822213195708776907
23227448 37 18410573993784123093
23557571 272 18412548746742617463
23559900 14 18056765326033343702
2838139 119 18271235011616403692
3117164 225 18191575355824778434
508706 21 18340757208833554440
59755656 520 18188484675165880054
7808743 9 18335983086443420936
84936 182 17619062837996369281
9981440 41 18116718413719226217

> <PUBCHEM_SHAPE_MULTIPOLES>
450.74
12.35
3.98
1.11
18.18
0.41
0.17
-5.1
0.01
-6.97
-0.22
0.15
-0.07
1.89

> <PUBCHEM_SHAPE_SELFOVERLAP>
926.739

> <PUBCHEM_SHAPE_VOLUME>
257.2

> <PUBCHEM_COORDINATE_TYPE>
2
5
10

$$$$
