25323033
  -OEChem-06112216573D

 42 44  0     1  0  0  0  0  0999 V2000
   -3.6319    0.8349   -1.4564 P   0  0  2  0  0  0  0  0  0  0  0  0
   -5.2499    0.7236    0.9979 P   0  0  0  0  0  0  0  0  0  0  0  0
    0.3082   -0.7073   -0.5881 O   0  0  0  0  0  0  0  0  0  0  0  0
    1.6047   -1.8031    1.9426 O   0  0  0  0  0  0  0  0  0  0  0  0
   -0.7863   -3.5208   -0.1442 O   0  0  0  0  0  0  0  0  0  0  0  0
   -2.2707    0.3806   -0.7099 O   0  0  0  0  0  0  0  0  0  0  0  0
   -4.8194    0.2970   -0.5002 O   0  0  0  0  0  0  0  0  0  0  0  0
   -3.7276   -0.1352   -2.7476 O   0  0  0  0  0  0  0  0  0  0  0  0
   -3.7144    2.2996   -1.7752 O   0  0  0  0  0  0  0  0  0  0  0  0
   -6.6110   -0.1134    1.2406 O   0  0  0  0  0  0  0  0  0  0  0  0
   -5.7677    2.2442    0.8188 O   0  0  0  0  0  0  0  0  0  0  0  0
   -4.1844    0.5269    2.0353 O   0  0  0  0  0  0  0  0  0  0  0  0
    2.7542   -0.9218   -0.4980 N   0  0  0  0  0  0  0  0  0  0  0  0
    4.9192   -0.5747   -0.9004 N   0  0  0  0  0  0  0  0  0  0  0  0
    2.1994    1.1604    0.6230 N   0  0  0  0  0  0  0  0  0  0  0  0
    4.1481    2.6192    0.7980 N   0  0  0  0  0  0  0  0  0  0  0  0
    6.2970    2.0003   -0.0535 N   0  0  0  0  0  0  0  0  0  0  0  0
    1.1542   -2.4720    0.7690 C   0  0  1  0  0  0  0  0  0  0  0  0
   -0.3599   -2.5317    0.7839 C   0  0  1  0  0  0  0  0  0  0  0  0
    1.4176   -1.6222   -0.4776 C   0  0  1  0  0  0  0  0  0  0  0  0
   -0.7277   -1.1214    0.3244 C   0  0  2  0  0  0  0  0  0  0  0  0
   -2.0765   -0.9794   -0.3568 C   0  0  0  0  0  0  0  0  0  0  0  0
    3.0390    0.3146    0.0073 C   0  0  0  0  0  0  0  0  0  0  0  0
    3.9147   -1.4158   -1.0323 C   0  0  0  0  0  0  0  0  0  0  0  0
    4.3860    0.5110   -0.2524 C   0  0  0  0  0  0  0  0  0  0  0  0
    4.9384    1.7166    0.1685 C   0  0  0  0  0  0  0  0  0  0  0  0
    2.8469    2.2898    0.9833 C   0  0  0  0  0  0  0  0  0  0  0  0
    1.6515   -3.4448    0.7039 H   0  0  0  0  0  0  0  0  0  0  0  0
   -0.7943   -2.7555    1.7632 H   0  0  0  0  0  0  0  0  0  0  0  0
    1.4031   -2.2404   -1.3841 H   0  0  0  0  0  0  0  0  0  0  0  0
   -0.6684   -0.4236    1.1693 H   0  0  0  0  0  0  0  0  0  0  0  0
   -2.8795   -1.3089    0.3085 H   0  0  0  0  0  0  0  0  0  0  0  0
   -2.1070   -1.5725   -1.2763 H   0  0  0  0  0  0  0  0  0  0  0  0
    1.3633   -2.3581    2.7038 H   0  0  0  0  0  0  0  0  0  0  0  0
   -0.4757   -4.3818    0.1843 H   0  0  0  0  0  0  0  0  0  0  0  0
    3.9666   -2.3892   -1.5005 H   0  0  0  0  0  0  0  0  0  0  0  0
    2.2437    3.0354    1.4903 H   0  0  0  0  0  0  0  0  0  0  0  0
    6.8890    1.3285   -0.5230 H   0  0  0  0  0  0  0  0  0  0  0  0
    6.6748    2.8834    0.2618 H   0  0  0  0  0  0  0  0  0  0  0  0
   -4.4116    0.0457   -3.4270 H   0  0  0  0  0  0  0  0  0  0  0  0
   -7.0310   -0.0906    2.1268 H   0  0  0  0  0  0  0  0  0  0  0  0
   -6.0144    2.7590    1.6165 H   0  0  0  0  0  0  0  0  0  0  0  0
  1  6  1  0  0  0  0
  1  7  1  0  0  0  0
  1  8  1  0  0  0  0
  1  9  2  0  0  0  0
  2  7  1  0  0  0  0
  2 10  1  0  0  0  0
  2 11  1  0  0  0  0
  2 12  2  0  0  0  0
  3 20  1  0  0  0  0
  3 21  1  0  0  0  0
  4 18  1  0  0  0  0
  4 34  1  0  0  0  0
  5 19  1  0  0  0  0
  5 35  1  0  0  0  0
  6 22  1  0  0  0  0
  8 40  1  0  0  0  0
 10 41  1  0  0  0  0
 11 42  1  0  0  0  0
 13 20  1  0  0  0  0
 13 23  1  0  0  0  0
 13 24  1  0  0  0  0
 14 24  2  0  0  0  0
 14 25  1  0  0  0  0
 15 23  1  0  0  0  0
 15 27  2  0  0  0  0
 16 26  2  0  0  0  0
 16 27  1  0  0  0  0
 17 26  1  0  0  0  0
 17 38  1  0  0  0  0
 17 39  1  0  0  0  0
 18 19  1  0  0  0  0
 18 20  1  0  0  0  0
 18 28  1  0  0  0  0
 19 21  1  0  0  0  0
 19 29  1  0  0  0  0
 20 30  1  0  0  0  0
 21 22  1  0  0  0  0
 21 31  1  0  0  0  0
 22 32  1  0  0  0  0
 22 33  1  0  0  0  0
 23 25  2  0  0  0  0
 24 36  1  0  0  0  0
 25 26  1  0  0  0  0
 27 37  1  0  0  0  0
M  END
> <PUBCHEM_COMPOUND_CID>
25323033

> <PUBCHEM_CONFORMER_RMSD>
0.8

> <PUBCHEM_CONFORMER_DIVERSEORDER>
1
270
146
205
159
181
74
108
132
234
235
76
23
244
209
240
211
151
20
248
215
188
163
231
135
143
72
204
53
218
40
166
105
84
128
200
249
208
255
50
192
250
154
242
221
246
155
109
103
139
227
275
189
182
190
133
167
73
87
276
186
93
175
257
236
216
173
268
35
144
12
60
140
185
172
196
253
7
42
229
262
153
165
263
277
113
152
230
127
213
100
180
278
130
162
65
251
25
198
260
271
168
124
89
199
145
157
201
207
142
269
222
99
241
228
134
92
233
219
171
28
75
187
111
274
214
261
195
150
121
225
83
178
137
14
174
203
24
206
58
267
18
104
220
95
226
237
11
27
258
232
138
247
106
179
184
266
112
223
120
123
110
17
136
259
29
156
98
82
265
67
38
118
41
224
193
264
59
13
39
47
141
129
148
116
51
96
30
131
210
22
70
85
147
197
5
202
176
86
107
9
80
126
245
273
194
68
26
164
66
243
169
122
217
101
79
56
91
254
238
160
44
149
54
48
55
62
57
64
115
63
272
117
21
102
52
77
16
90
69
10
114
49
15
256
33
32
170
71
45
119
81
97
177
19
3
43
88
191
31
6
212
94
61
34
239
183
4
161
158
36
125
37
8
46
2
252
78

> <PUBCHEM_MMFF94_PARTIAL_CHARGES>
36
1 1.51
10 -0.77
11 -0.77
12 -0.7
13 0.05
14 -0.57
15 -0.57
16 -0.62
17 -0.9
18 0.28
19 0.28
2 1.51
20 0.54
21 0.28
22 0.28
23 0.11
24 0.04
25 0.23
26 0.41
27 0.47
3 -0.56
34 0.4
35 0.4
36 0.15
37 0.15
38 0.4
39 0.4
4 -0.68
40 0.5
41 0.5
42 0.5
5 -0.68
6 -0.55
7 -0.54
8 -0.77
9 -0.7

> <PUBCHEM_EFFECTIVE_ROTOR_COUNT>
7

> <PUBCHEM_PHARMACOPHORE_FEATURES>
18
1 10 acceptor
1 11 acceptor
1 12 acceptor
1 17 donor
1 3 acceptor
1 4 acceptor
1 4 donor
1 5 acceptor
1 5 donor
1 8 acceptor
1 9 acceptor
3 13 14 24 cation
3 15 16 27 cation
3 16 17 26 cation
4 2 10 11 12 anion
5 13 14 23 24 25 rings
5 3 18 19 20 21 rings
6 15 16 23 25 26 27 rings

> <PUBCHEM_HEAVY_ATOM_COUNT>
27

> <PUBCHEM_ATOM_DEF_STEREO_COUNT>
4

> <PUBCHEM_ATOM_UDEF_STEREO_COUNT>
0

> <PUBCHEM_BOND_DEF_STEREO_COUNT>
0

> <PUBCHEM_BOND_UDEF_STEREO_COUNT>
0

> <PUBCHEM_ISOTOPIC_ATOM_COUNT>
0

> <PUBCHEM_COMPONENT_COUNT>
1

> <PUBCHEM_CACTVS_TAUTO_COUNT>
3

> <PUBCHEM_CONFORMER_ID>
0182661900000001

> <PUBCHEM_MMFF94_ENERGY>
7.6548

> <PUBCHEM_FEATURE_SELFOVERLAP>
91.643

> <PUBCHEM_SHAPE_FINGERPRINT>
10074138 170 17387136579407604851
11595378 159 15285358397244641183
11796584 16 13254788032112234495
12403259 118 16443062794417050335
12403259 415 18259985946368950871
12596602 18 18202007616801323433
12730499 353 18409174294001878914
12788726 201 16558485096720855784
13583140 156 16009293401275668469
14251764 30 12830306111382037376
146900 427 18335422314412620971
15081414 286 18411703184126706972
15183329 4 15410899548356747121
18222031 100 10015864275802038702
21033648 144 18341325669182024526
21033648 29 18040711446417282197
21033650 10 13901647202754835819
21401589 2 18262793098518304208
21864079 5 18267008488871415845
22122407 14 18055086367667275625
23559900 14 18341612647072293350
2838139 119 18201714089703619128
469060 322 17241035635030733159
474 4 18272370875514537595
497634 4 18131060563898882237
5104073 3 18260547839829600106
59755656 520 18412265077042938711
633830 44 18272364261444470807
7808743 9 18042121128172994524

> <PUBCHEM_SHAPE_MULTIPOLES>
479.75
14.02
3.09
1.63
8.21
0.74
-0.37
-10.6
0.93
-1.64
0.64
2.2
-0.16
0.83

> <PUBCHEM_SHAPE_SELFOVERLAP>
992.658

> <PUBCHEM_SHAPE_VOLUME>
276.6

> <PUBCHEM_COORDINATE_TYPE>
2
5
10

$$$$
