74989
  -OEChem-06112217123D

 45 48  0     0  0  0  0  0  0999 V2000
    8.6389   -0.4437    0.0493 Cl  0  0  0  0  0  0  0  0  0  0  0  0
   -2.3756   -2.5274    0.1783 O   0  0  0  0  0  0  0  0  0  0  0  0
   -1.1668    2.0871   -0.2090 O   0  0  0  0  0  0  0  0  0  0  0  0
   -3.7182    2.7634   -0.2154 O   0  0  0  0  0  0  0  0  0  0  0  0
   -0.1567   -0.5182    0.0331 C   0  0  0  0  0  0  0  0  0  0  0  0
    2.6726    0.3910   -0.0392 C   0  0  0  0  0  0  0  0  0  0  0  0
    0.4985    0.1625    1.2430 C   0  0  0  0  0  0  0  0  0  0  0  0
    0.5063   -0.0620   -1.2739 C   0  0  0  0  0  0  0  0  0  0  0  0
    2.0100   -0.0663    1.2708 C   0  0  0  0  0  0  0  0  0  0  0  0
    2.0178   -0.2912   -1.2517 C   0  0  0  0  0  0  0  0  0  0  0  0
   -1.6315   -0.2493    0.0045 C   0  0  0  0  0  0  0  0  0  0  0  0
    4.1755    0.1804   -0.0155 C   0  0  0  0  0  0  0  0  0  0  0  0
   -2.6141   -1.1692    0.0835 C   0  0  0  0  0  0  0  0  0  0  0  0
   -1.9942    1.1909   -0.1154 C   0  0  0  0  0  0  0  0  0  0  0  0
    5.0107    1.1911    0.4552 C   0  0  0  0  0  0  0  0  0  0  0  0
    4.7146   -1.0227   -0.4658 C   0  0  0  0  0  0  0  0  0  0  0  0
   -4.0500   -0.8120    0.0698 C   0  0  0  0  0  0  0  0  0  0  0  0
   -3.4412    1.5775   -0.1271 C   0  0  0  0  0  0  0  0  0  0  0  0
   -4.4588    0.5235   -0.0321 C   0  0  0  0  0  0  0  0  0  0  0  0
    6.3920    0.9978    0.4755 C   0  0  0  0  0  0  0  0  0  0  0  0
    6.0959   -1.2160   -0.4453 C   0  0  0  0  0  0  0  0  0  0  0  0
   -5.0520   -1.7943    0.1586 C   0  0  0  0  0  0  0  0  0  0  0  0
    6.9346   -0.2057    0.0254 C   0  0  0  0  0  0  0  0  0  0  0  0
   -5.8143    0.8764   -0.0458 C   0  0  0  0  0  0  0  0  0  0  0  0
   -6.4069   -1.4489    0.1457 C   0  0  0  0  0  0  0  0  0  0  0  0
   -6.7872   -0.1147    0.0436 C   0  0  0  0  0  0  0  0  0  0  0  0
    0.0507   -1.5883    0.1322 H   0  0  0  0  0  0  0  0  0  0  0  0
    2.4926    1.4704   -0.1503 H   0  0  0  0  0  0  0  0  0  0  0  0
    0.0659   -0.2384    2.1689 H   0  0  0  0  0  0  0  0  0  0  0  0
    0.3346    1.2429    1.2752 H   0  0  0  0  0  0  0  0  0  0  0  0
    0.3438    0.9954   -1.4983 H   0  0  0  0  0  0  0  0  0  0  0  0
    0.0781   -0.6199   -2.1169 H   0  0  0  0  0  0  0  0  0  0  0  0
    2.4415    0.4734    2.1230 H   0  0  0  0  0  0  0  0  0  0  0  0
    2.2130   -1.1313    1.4441 H   0  0  0  0  0  0  0  0  0  0  0  0
    2.1670   -1.3764   -1.2379 H   0  0  0  0  0  0  0  0  0  0  0  0
    2.4570    0.0813   -2.1856 H   0  0  0  0  0  0  0  0  0  0  0  0
    4.6000    2.1323    0.8104 H   0  0  0  0  0  0  0  0  0  0  0  0
    4.1041   -1.8480   -0.8131 H   0  0  0  0  0  0  0  0  0  0  0  0
    7.0334    1.7938    0.8453 H   0  0  0  0  0  0  0  0  0  0  0  0
    6.5050   -2.1612   -0.7933 H   0  0  0  0  0  0  0  0  0  0  0  0
   -4.8014   -2.8496    0.2403 H   0  0  0  0  0  0  0  0  0  0  0  0
   -1.4261   -2.7096    0.1394 H   0  0  0  0  0  0  0  0  0  0  0  0
   -6.1268    1.9140   -0.1252 H   0  0  0  0  0  0  0  0  0  0  0  0
   -7.1635   -2.2251    0.2157 H   0  0  0  0  0  0  0  0  0  0  0  0
   -7.8396    0.1524    0.0337 H   0  0  0  0  0  0  0  0  0  0  0  0
  1 23  1  0  0  0  0
  2 13  1  0  0  0  0
  2 42  1  0  0  0  0
  3 14  2  0  0  0  0
  4 18  2  0  0  0  0
  5  7  1  0  0  0  0
  5  8  1  0  0  0  0
  5 11  1  0  0  0  0
  5 27  1  0  0  0  0
  6  9  1  0  0  0  0
  6 10  1  0  0  0  0
  6 12  1  0  0  0  0
  6 28  1  0  0  0  0
  7  9  1  0  0  0  0
  7 29  1  0  0  0  0
  7 30  1  0  0  0  0
  8 10  1  0  0  0  0
  8 31  1  0  0  0  0
  8 32  1  0  0  0  0
  9 33  1  0  0  0  0
  9 34  1  0  0  0  0
 10 35  1  0  0  0  0
 10 36  1  0  0  0  0
 11 13  2  0  0  0  0
 11 14  1  0  0  0  0
 12 15  2  0  0  0  0
 12 16  1  0  0  0  0
 13 17  1  0  0  0  0
 14 18  1  0  0  0  0
 15 20  1  0  0  0  0
 15 37  1  0  0  0  0
 16 21  2  0  0  0  0
 16 38  1  0  0  0  0
 17 19  1  0  0  0  0
 17 22  2  0  0  0  0
 18 19  1  0  0  0  0
 19 24  2  0  0  0  0
 20 23  2  0  0  0  0
 20 39  1  0  0  0  0
 21 23  1  0  0  0  0
 21 40  1  0  0  0  0
 22 25  1  0  0  0  0
 22 41  1  0  0  0  0
 24 26  1  0  0  0  0
 24 43  1  0  0  0  0
 25 26  2  0  0  0  0
 25 44  1  0  0  0  0
 26 45  1  0  0  0  0
M  END
> <PUBCHEM_COMPOUND_CID>
74989

> <PUBCHEM_CONFORMER_RMSD>
0.6

> <PUBCHEM_CONFORMER_DIVERSEORDER>
1
4
6
8
7
9
2
5
3

> <PUBCHEM_MMFF94_PARTIAL_CHARGES>
31
1 -0.18
11 -0.12
12 -0.14
13 0.05
14 0.56
15 -0.15
16 -0.15
17 0.03
18 0.48
19 0.09
2 -0.53
20 -0.15
21 -0.15
22 -0.15
23 0.18
24 -0.15
25 -0.15
26 -0.15
3 -0.57
37 0.15
38 0.15
39 0.15
4 -0.57
40 0.15
41 0.15
42 0.45
43 0.15
44 0.15
45 0.15
5 0.14
6 0.14

> <PUBCHEM_EFFECTIVE_ROTOR_COUNT>
3.2

> <PUBCHEM_PHARMACOPHORE_FEATURES>
7
1 2 donor
1 3 acceptor
1 4 acceptor
6 11 13 14 17 18 19 rings
6 12 15 16 20 21 23 rings
6 17 19 22 24 25 26 rings
6 5 6 7 8 9 10 rings

> <PUBCHEM_HEAVY_ATOM_COUNT>
26

> <PUBCHEM_ATOM_DEF_STEREO_COUNT>
0

> <PUBCHEM_ATOM_UDEF_STEREO_COUNT>
0

> <PUBCHEM_BOND_DEF_STEREO_COUNT>
0

> <PUBCHEM_BOND_UDEF_STEREO_COUNT>
0

> <PUBCHEM_ISOTOPIC_ATOM_COUNT>
0

> <PUBCHEM_COMPONENT_COUNT>
1

> <PUBCHEM_CACTVS_TAUTO_COUNT>
53

> <PUBCHEM_CONFORMER_ID>
000124ED00000001

> <PUBCHEM_MMFF94_ENERGY>
68.8411

> <PUBCHEM_FEATURE_SELFOVERLAP>
35.553

> <PUBCHEM_SHAPE_FINGERPRINT>
10 15 18201430416288812896
102385 1 15191588918970827054
10299344 5 18040435486827315186
10411042 1 18121220042505779083
10595046 47 18334858307992216096
10730089 173 18335420166786457041
11315181 36 17967536787135589693
11524674 6 16702302377628755767
11719270 70 17988924453893676662
12107183 9 17613709328401445200
12166972 35 18113902675867613388
12236239 1 17676205771256221535
12516196 113 18343864428904327712
12741549 16 17346881161281443857
13288520 33 18409730673409074661
13402501 40 18201721760240701799
13533116 47 17385712566226356954
13782708 43 17989203754630232015
13885169 127 18411138009437488184
13947920 75 18040433304287525683
14251764 18 17967533472185708670
14251764 46 17603303761210607011
14341114 176 18412546526682355772
14933364 13 18413389843579490696
15183329 4 18409166593610502434
15419008 47 17988918964466595480
15849732 13 18040715879055536271
17844677 252 18411706495572547352
18335252 98 18341617023074281698
18608769 82 18342455975704739419
18681886 176 18260263087739607328
19489759 90 18259705592637277297
21033648 29 17703211967046474424
21150785 3 17458065971736359726
21236236 1 18413389813588637641
21267235 1 18334017233363395995
21315763 28 18409448098804711170
21623969 137 17346604062543902846
21792961 116 17774725273612889262
22224240 67 14405183972138877614
2297311 6 18411983559512083689
23035841 295 18260829301926150331
23402539 116 18410853278875697455
23536379 177 18410575072347928370
23559900 14 18340199786550197673
23569914 2 17619291742680184320
3004659 81 18409448086078091082
335352 9 18408598164038317173
3383291 50 17968664933838622851
34797466 226 18059584620007328700
3545911 37 18411699876959021548
4073 2 18114748243733507522
4325135 7 18408040719230766132
4340502 62 18343302565947157462
5104073 3 18268436745548371939
5265222 85 18270405018108605006
59755656 215 18408605838074587374
59755656 520 16805321119334778075
7495541 125 17988643033748811592

> <PUBCHEM_SHAPE_MULTIPOLES>
519.33
20.84
1.85
0.9
20.52
0.3
0
-3.05
0.67
-2.34
-0.04
0.46
-0.01
0.8

> <PUBCHEM_SHAPE_SELFOVERLAP>
1135.476

> <PUBCHEM_SHAPE_VOLUME>
280.8

> <PUBCHEM_COORDINATE_TYPE>
2
5
10

$$$$
