5287703
  -OEChem-06112217083D

 42 45  0     1  0  0  0  0  0999 V2000
    2.0032   -2.2008   -0.0422 O   0  0  0  0  0  0  0  0  0  0  0  0
    1.3204    3.1491    0.2868 O   0  0  0  0  0  0  0  0  0  0  0  0
   -1.2418   -2.9537    1.1074 O   0  0  0  0  0  0  0  0  0  0  0  0
    4.2254   -0.6017    0.1623 N   0  0  1  0  0  0  0  0  0  0  0  0
   -0.9867    1.2607    0.0562 N   0  0  0  0  0  0  0  0  0  0  0  0
    5.3122    0.0253   -0.5850 C   0  0  1  0  0  0  0  0  0  0  0  0
    5.2782    0.0854    0.9054 C   0  0  0  0  0  0  0  0  0  0  0  0
    2.9868   -0.0227    0.1466 C   0  0  0  0  0  0  0  0  0  0  0  0
    6.3571   -0.7779   -1.2651 C   0  0  0  0  0  0  0  0  0  0  0  0
    0.5241   -0.3716    0.0147 C   0  0  0  0  0  0  0  0  0  0  0  0
    1.8315   -0.9894    0.0309 C   0  0  0  0  0  0  0  0  0  0  0  0
    0.3552    0.9935    0.0990 C   0  0  0  0  0  0  0  0  0  0  0  0
    2.7914    1.3083    0.2275 C   0  0  0  0  0  0  0  0  0  0  0  0
   -0.7668   -0.9497   -0.0818 C   0  0  0  0  0  0  0  0  0  0  0  0
   -1.6805    0.0824   -0.0542 C   0  0  0  0  0  0  0  0  0  0  0  0
    1.4352    1.9301    0.2096 C   0  0  0  0  0  0  0  0  0  0  0  0
   -1.0797   -2.3906   -0.1932 C   0  0  0  0  0  0  0  0  0  0  0  0
   -3.1255    0.0277   -0.1232 C   0  0  0  0  0  0  0  0  0  0  0  0
   -1.5841    2.5789    0.1177 C   0  0  0  0  0  0  0  0  0  0  0  0
   -3.8719   -0.0790    1.0474 C   0  0  0  0  0  0  0  0  0  0  0  0
   -3.7613    0.0809   -1.3607 C   0  0  0  0  0  0  0  0  0  0  0  0
   -5.2642   -0.1328    0.9799 C   0  0  0  0  0  0  0  0  0  0  0  0
   -5.1535    0.0273   -1.4283 C   0  0  0  0  0  0  0  0  0  0  0  0
   -5.9049   -0.0796   -0.2579 C   0  0  0  0  0  0  0  0  0  0  0  0
    5.0625    0.9135   -1.1512 H   0  0  0  0  0  0  0  0  0  0  0  0
    5.8959   -0.6002    1.4717 H   0  0  0  0  0  0  0  0  0  0  0  0
    5.0535    1.0125    1.4090 H   0  0  0  0  0  0  0  0  0  0  0  0
    7.2819   -0.1995   -1.3542 H   0  0  0  0  0  0  0  0  0  0  0  0
    6.5838   -1.7026   -0.7240 H   0  0  0  0  0  0  0  0  0  0  0  0
    6.0276   -1.0494   -2.2730 H   0  0  0  0  0  0  0  0  0  0  0  0
    3.5954    2.0339    0.2910 H   0  0  0  0  0  0  0  0  0  0  0  0
   -2.0122   -2.5551   -0.7427 H   0  0  0  0  0  0  0  0  0  0  0  0
   -0.3032   -2.9490   -0.7239 H   0  0  0  0  0  0  0  0  0  0  0  0
   -1.2110    3.1621   -0.7285 H   0  0  0  0  0  0  0  0  0  0  0  0
   -2.6721    2.5327    0.0656 H   0  0  0  0  0  0  0  0  0  0  0  0
   -1.2917    3.0418    1.0642 H   0  0  0  0  0  0  0  0  0  0  0  0
   -3.3866   -0.1217    2.0195 H   0  0  0  0  0  0  0  0  0  0  0  0
   -3.1893    0.1642   -2.2817 H   0  0  0  0  0  0  0  0  0  0  0  0
   -0.3816   -2.9011    1.5585 H   0  0  0  0  0  0  0  0  0  0  0  0
   -5.8493   -0.2161    1.8912 H   0  0  0  0  0  0  0  0  0  0  0  0
   -5.6526    0.0687   -2.3920 H   0  0  0  0  0  0  0  0  0  0  0  0
   -6.9889   -0.1215   -0.3105 H   0  0  0  0  0  0  0  0  0  0  0  0
  1 11  2  0  0  0  0
  2 16  2  0  0  0  0
  3 17  1  0  0  0  0
  3 39  1  0  0  0  0
  4  6  1  0  0  0  0
  4  7  1  0  0  0  0
  4  8  1  0  0  0  0
  5 12  1  0  0  0  0
  5 15  1  0  0  0  0
  5 19  1  0  0  0  0
  6  7  1  0  0  0  0
  6  9  1  0  0  0  0
  6 25  1  0  0  0  0
  7 26  1  0  0  0  0
  7 27  1  0  0  0  0
  8 11  1  0  0  0  0
  8 13  2  0  0  0  0
  9 28  1  0  0  0  0
  9 29  1  0  0  0  0
  9 30  1  0  0  0  0
 10 11  1  0  0  0  0
 10 12  2  0  0  0  0
 10 14  1  0  0  0  0
 12 16  1  0  0  0  0
 13 16  1  0  0  0  0
 13 31  1  0  0  0  0
 14 15  2  0  0  0  0
 14 17  1  0  0  0  0
 15 18  1  0  0  0  0
 17 32  1  0  0  0  0
 17 33  1  0  0  0  0
 18 20  2  0  0  0  0
 18 21  1  0  0  0  0
 19 34  1  0  0  0  0
 19 35  1  0  0  0  0
 19 36  1  0  0  0  0
 20 22  1  0  0  0  0
 20 37  1  0  0  0  0
 21 23  2  0  0  0  0
 21 38  1  0  0  0  0
 22 24  2  0  0  0  0
 22 40  1  0  0  0  0
 23 24  1  0  0  0  0
 23 41  1  0  0  0  0
 24 42  1  0  0  0  0
M  END
> <PUBCHEM_COMPOUND_CID>
5287703

> <PUBCHEM_CONFORMER_RMSD>
0.6

> <PUBCHEM_CONFORMER_DIVERSEORDER>
2
6
8
4
5
7
3
1

> <PUBCHEM_MMFF94_PARTIAL_CHARGES>
34
1 -0.57
10 -0.09
11 0.64
12 -0.24
13 -0.14
14 -0.18
15 -0.2
16 0.64
17 0.46
18 0.05
19 0.26
2 -0.57
20 -0.15
21 -0.15
22 -0.15
23 -0.15
24 -0.15
25 0.1
26 0.1
27 0.1
3 -0.68
31 0.15
37 0.15
38 0.15
39 0.4
4 -0.44
40 0.15
41 0.15
42 0.15
5 0.05
6 -0.03
7 -0.03
8 0.11
9 0.09

> <PUBCHEM_EFFECTIVE_ROTOR_COUNT>
3.6

> <PUBCHEM_PHARMACOPHORE_FEATURES>
9
1 1 acceptor
1 2 acceptor
1 3 acceptor
1 3 donor
1 4 cation
1 5 cation
5 5 10 12 14 15 rings
6 18 20 21 22 23 24 rings
6 8 10 11 12 13 16 rings

> <PUBCHEM_HEAVY_ATOM_COUNT>
24

> <PUBCHEM_ATOM_DEF_STEREO_COUNT>
1

> <PUBCHEM_ATOM_UDEF_STEREO_COUNT>
0

> <PUBCHEM_BOND_DEF_STEREO_COUNT>
0

> <PUBCHEM_BOND_UDEF_STEREO_COUNT>
0

> <PUBCHEM_ISOTOPIC_ATOM_COUNT>
0

> <PUBCHEM_COMPONENT_COUNT>
1

> <PUBCHEM_CACTVS_TAUTO_COUNT>
1

> <PUBCHEM_CONFORMER_ID>
0050AF1700000002

> <PUBCHEM_MMFF94_ENERGY>
76.3317

> <PUBCHEM_FEATURE_SELFOVERLAP>
45.757

> <PUBCHEM_SHAPE_FINGERPRINT>
10906281 52 18270415956836133828
10967382 1 18411135839893493313
1100329 8 18338516455564497626
11796584 16 16732977600665052898
11963148 33 18408036325517282554
12011746 2 18410293601270559142
12035758 1 18409165545131839859
12236239 1 17560799953184903117
12403259 415 18187354450702029413
12553582 1 18411129238845302984
12788726 201 18338511933043251448
13140716 1 18266739280078456224
13533116 47 17632295692475715912
13540713 4 18121217846732349650
13583140 156 17095239233308387067
13862211 1 18412257324906433842
14115302 16 18187369869470624044
14790565 3 18410866442439510032
15099037 51 18410009952866349302
15196674 1 18267302208398785130
15475509 8 17986976088580544324
16945 1 18411134757582983144
17349148 13 18131354119705992249
18222031 100 18343577435105625136
19141452 34 17775001319160321926
200 152 18202276996638672209
20028762 73 18131064987262263343
20612939 158 18339922718236644197
21029758 11 18342451539077258848
21033648 29 18114443639925475509
21033650 10 16127001605459850336
21236236 1 18341333275759574465
21267235 1 18341338837477926468
21641784 216 18114759126801165764
2334 1 17834392697901512568
23402539 116 18201716245650432317
23522609 53 17985859040596699856
23536379 177 15913330182424324294
23559900 14 18269550693020230336
23569914 152 16975880365306871181
23569914 2 15144579298987668982
23569943 247 17773045146157205270
23576562 1 18115307929062988845
266924 87 18192705649182120389
283562 15 18339642222707493577
3004659 81 18260268551818878460
3178227 256 18334305270780954115
335352 9 18411419531089153262
34797466 226 16009040470709746022
350125 39 18410576158695858809
3759504 43 17458344160541310979
404807 14 15477086682015051478
4340502 62 16443066071361234355
5104073 3 18267300017976040547
59755656 215 18411417271999827983
7495541 125 17676775360923374241

> <PUBCHEM_SHAPE_MULTIPOLES>
466.34
12.67
2.35
1.04
3.6
0.36
-0.15
-1.71
-2.37
0.42
0.41
-0.53
-0.18
0.51

> <PUBCHEM_SHAPE_SELFOVERLAP>
1031.745

> <PUBCHEM_SHAPE_VOLUME>
254.3

> <PUBCHEM_COORDINATE_TYPE>
2
5
10

$$$$
